version 3
run Default-0-20260214-12:12:08-21524
attr configname Default
attr datetime 20260214-12:12:08
attr datetimef 20260214-121208
attr experiment Default
attr inifile omnetpp.ini
attr iterationvars ""
attr iterationvarsd ""
attr iterationvarsf ""
attr measurement ""
attr network RSUExampleScenario
attr processid 21524
attr repetition 0
attr replication #0
attr resultdir results
attr runnumber 0
attr seedset 0
config image-path ../../../../../Downloads/veins-5.3.1/veins-veins-5.3.1/images
config cmdenv-express-mode true
config cmdenv-autoflush true
config cmdenv-status-frequency 1s
config **.cmdenv-log-level info
config image-path ../../images
config network RSUExampleScenario
config debug-on-errors true
config print-undisposed true
config sim-time-limit 200s
config **.scalar-recording true
config **.vector-recording true
config *.playgroundSizeX 7000m
config *.playgroundSizeY 5700m
config *.playgroundSizeZ 50m
config *.annotations.draw true
config *.obstacles.obstacles "xmldoc(\"config.xml\", \"//AnalogueModel[@type='SimpleObstacleShadowing']/obstacles\")"
config *.manager.updateInterval 1s
config *.manager.host "\"localhost\""
config *.manager.port 9999
config *.manager.autoShutdown true
config *.manager.launchConfig "xmldoc(\"Delhi2.launchd.xml\")"
config *.tls[*].mobility.x 0
config *.tls[*].mobility.y 0
config *.tls[*].mobility.z 3
config *.tls[*].applType "\"org.car2x.veins.modules.application.traci.TraCIDemoTrafficLightApp\""
config *.tls[*].logicType "\"org.car2x.veins.modules.world.traci.trafficLight.logics.TraCITrafficLightSimpleLogic\""
config *.rsu[*].mobility.x "(parentIndex() % 9) * 800"
config *.rsu[*].mobility.y "floor(parentIndex() / 9) * 800"
config *.rsu[0].mobility.z 3
config *.rsu[*].applType "\"ICDDRRSU\""
config *.rsu[*].appl.headerLength "80 bit"
config *.rsu[*].appl.sendBeacons false
config *.rsu[*].appl.dataOnSch false
config *.rsu[*].appl.beaconInterval 1s
config *.rsu[*].appl.beaconUserPriority 7
config *.rsu[*].appl.dataUserPriority 5
config *.rsu[*].nic.phy80211p.antennaOffsetZ "0 m"
config *.connectionManager.sendDirect true
config *.connectionManager.maxInterfDist 2600m
config *.connectionManager.drawMaxIntfDist false
config *.**.nic.mac1609_4.useServiceChannel false
config *.**.nic.mac1609_4.txPower 20mW
config *.**.nic.mac1609_4.bitrate 6Mbps
config *.**.nic.phy80211p.minPowerLevel -110dBm
config *.**.nic.phy80211p.useNoiseFloor true
config *.**.nic.phy80211p.noiseFloor -98dBm
config *.**.nic.phy80211p.decider "xmldoc(\"config.xml\")"
config *.**.nic.phy80211p.analogueModels "xmldoc(\"config.xml\")"
config *.**.nic.phy80211p.usePropagationDelay true
config *.**.nic.phy80211p.antenna "xmldoc(\"antenna.xml\", \"/root/Antenna[@id='monopole']\")"
config *.node[*].nic.phy80211p.antennaOffsetY "0 m"
config *.node[*].nic.phy80211p.antennaOffsetZ "1.895 m"
config *.node[*].applType "\"ICDDRVehicle\""
config *.node[*].appl.headerLength "80 bit"
config *.node[*].appl.sendBeacons false
config *.node[*].appl.dataOnSch false
config *.node[*].appl.beaconInterval 1s
config *.node[*].veinsmobility.x 0
config *.node[*].veinsmobility.y 0
config *.node[*].veinsmobility.z 0
config *.node[*].veinsmobility.setHostSpeed false
config *.node[*0].veinsmobility.accidentCount 1
config *.node[*0].veinsmobility.accidentStart 73s
config *.node[*0].veinsmobility.accidentDuration 50s

par RSUExampleScenario.obstacles typename "\"org.car2x.veins.modules.obstacle.ObstacleControl\""
par RSUExampleScenario.obstacles obstacles "<obstacles>...</obstacles> at C:/Users/Pranitha/OneDrive/Desktop/ICDDR/ICDDR/simulations/\\config.xml:40"
par RSUExampleScenario.obstacles gridCellSize 250
par RSUExampleScenario.annotations typename "\"org.car2x.veins.modules.world.annotations.AnnotationManager\""
par RSUExampleScenario.annotations draw true
par RSUExampleScenario.annotations annotations "<annotations/> at content:1"
par RSUExampleScenario.connectionManager typename "\"org.car2x.veins.base.connectionManager.ConnectionManager\""
par RSUExampleScenario.connectionManager sendDirect true
par RSUExampleScenario.connectionManager maxInterfDist 2600m
attr unit m
par RSUExampleScenario.connectionManager drawMaxIntfDist false
par RSUExampleScenario.world typename "\"org.car2x.veins.base.modules.BaseWorldUtility\""
par RSUExampleScenario.world playgroundSizeX 7000m
attr unit m
par RSUExampleScenario.world playgroundSizeY 5700m
attr unit m
par RSUExampleScenario.world playgroundSizeZ 50m
attr unit m
par RSUExampleScenario.world useTorus false
par RSUExampleScenario.world use2D false
par RSUExampleScenario.manager typename "\"org.car2x.veins.modules.mobility.traci.TraCIScenarioManagerLaunchd\""
par RSUExampleScenario.manager connectAt 0s
attr unit s
par RSUExampleScenario.manager firstStepAt -1s
attr unit s
par RSUExampleScenario.manager updateInterval 1s
attr unit s
par RSUExampleScenario.manager moduleType "\"org.car2x.veins.nodes.Car\""
par RSUExampleScenario.manager moduleName "\"node\""
par RSUExampleScenario.manager moduleDisplayString "\"*='i=veins/node/car;is=vs'\""
par RSUExampleScenario.manager trafficLightModuleType "\"\""
par RSUExampleScenario.manager trafficLightModuleName "\"tls\""
par RSUExampleScenario.manager trafficLightFilter "\"\""
par RSUExampleScenario.manager trafficLightModuleDisplayString "\"i=veins/node/trafficlight;is=vs\""
par RSUExampleScenario.manager host "\"localhost\""
par RSUExampleScenario.manager port 9999
par RSUExampleScenario.manager seed -1
par RSUExampleScenario.manager autoShutdown true
par RSUExampleScenario.manager margin 25
par RSUExampleScenario.manager roiRoads "\"\""
par RSUExampleScenario.manager roiRects "\"\""
par RSUExampleScenario.manager penetrationRate 1
par RSUExampleScenario.manager ignoreGuiCommands false
par RSUExampleScenario.manager order -1
par RSUExampleScenario.manager ignoreUnknownSubscriptionResults false
par RSUExampleScenario.manager launchConfig "<launch>...</launch> at C:/Users/Pranitha/OneDrive/Desktop/ICDDR/ICDDR/simulations/\\Delhi2.launchd.xml:3"
scalar RSUExampleScenario.manager roiArea 0
par RSUExampleScenario.roadsCanvasVisualizer typename "\"org.car2x.veins.visualizer.roads.RoadsCanvasVisualizer\""
par RSUExampleScenario.roadsCanvasVisualizer enabled true
par RSUExampleScenario.roadsCanvasVisualizer lineZIndex -1
par RSUExampleScenario.roadsCanvasVisualizer lineColor "\"firebrick4\""
par RSUExampleScenario.roadsCanvasVisualizer lineWidth 1
par RSUExampleScenario.roadsCanvasVisualizer lineWidthZoom false
par RSUExampleScenario.node[0].appl typename "\"ICDDRVehicle\""
par RSUExampleScenario.node[0].appl headerLength 80bit
attr unit bit
par RSUExampleScenario.node[0].appl sendBeacons false
par RSUExampleScenario.node[0].appl beaconLengthBits 256bit
attr unit bit
par RSUExampleScenario.node[0].appl beaconUserPriority 7
par RSUExampleScenario.node[0].appl beaconInterval 1s
attr unit s
par RSUExampleScenario.node[0].appl dataLengthBits 1024bit
attr unit bit
par RSUExampleScenario.node[0].appl dataOnSch false
par RSUExampleScenario.node[0].appl dataUserPriority 7
par RSUExampleScenario.node[0].appl avoidBeaconSynchronization true
par RSUExampleScenario.node[0].appl sendWSA false
par RSUExampleScenario.node[0].appl wsaLengthBits 250bit
attr unit bit
par RSUExampleScenario.node[0].appl wsaInterval 1s
attr unit s
scalar RSUExampleScenario.node[0].appl generatedWSMs 12
scalar RSUExampleScenario.node[0].appl receivedWSMs 0
scalar RSUExampleScenario.node[0].appl generatedBSMs 0
scalar RSUExampleScenario.node[0].appl receivedBSMs 0
scalar RSUExampleScenario.node[0].appl generatedWSAs 0
scalar RSUExampleScenario.node[0].appl receivedWSAs 0
par RSUExampleScenario.node[0].nic.phy80211p typename "\"org.car2x.veins.modules.phy.PhyLayer80211p\""
par RSUExampleScenario.node[0].nic.phy80211p recordStats false
par RSUExampleScenario.node[0].nic.phy80211p usePropagationDelay true
par RSUExampleScenario.node[0].nic.phy80211p noiseFloor -98dBm
attr unit dBm
par RSUExampleScenario.node[0].nic.phy80211p useNoiseFloor true
par RSUExampleScenario.node[0].nic.phy80211p antenna "<Antenna type=\"SampledAntenna1D\" id=\"monopole\">...</Antenna> at C:/Users/Pranitha/OneDrive/Desktop/ICDDR/ICDDR/simulations/\\antenna.xml:35"
par RSUExampleScenario.node[0].nic.phy80211p antennaOffsetX 0m
attr unit m
par RSUExampleScenario.node[0].nic.phy80211p antennaOffsetY 0m
attr unit m
par RSUExampleScenario.node[0].nic.phy80211p antennaOffsetZ 1.895m
attr unit m
par RSUExampleScenario.node[0].nic.phy80211p antennaOffsetYaw 0rad
attr unit rad
par RSUExampleScenario.node[0].nic.phy80211p analogueModels "<root>...</root> at C:/Users/Pranitha/OneDrive/Desktop/ICDDR/ICDDR/simulations/\\config.xml:34"
par RSUExampleScenario.node[0].nic.phy80211p decider "<root>...</root> at C:/Users/Pranitha/OneDrive/Desktop/ICDDR/ICDDR/simulations/\\config.xml:34"
par RSUExampleScenario.node[0].nic.phy80211p minPowerLevel -110dBm
attr unit dBm
par RSUExampleScenario.node[0].nic.phy80211p timeRXToTX 0s
attr unit s
par RSUExampleScenario.node[0].nic.phy80211p timeRXToSleep 0s
attr unit s
par RSUExampleScenario.node[0].nic.phy80211p timeTXToRX 0s
attr unit s
par RSUExampleScenario.node[0].nic.phy80211p timeTXToSleep 0s
attr unit s
par RSUExampleScenario.node[0].nic.phy80211p timeSleepToRX 0s
attr unit s
par RSUExampleScenario.node[0].nic.phy80211p timeSleepToTX 0s
attr unit s
par RSUExampleScenario.node[0].nic.phy80211p initialRadioState 0
par RSUExampleScenario.node[0].nic.phy80211p radioMinAtt 1
par RSUExampleScenario.node[0].nic.phy80211p radioMaxAtt 0
par RSUExampleScenario.node[0].nic.phy80211p nbRadioChannels 1
par RSUExampleScenario.node[0].nic.phy80211p initialRadioChannel 0
par RSUExampleScenario.node[0].nic.phy80211p ccaThreshold -65dBm
attr unit dBm
par RSUExampleScenario.node[0].nic.phy80211p collectCollisionStatistics false
par RSUExampleScenario.node[0].nic.phy80211p allowTxDuringRx false
scalar RSUExampleScenario.node[0].nic.phy80211p busyTime 0
par RSUExampleScenario.node[0].nic.mac1609_4 typename "\"org.car2x.veins.modules.mac.ieee80211p.Mac1609_4\""
par RSUExampleScenario.node[0].nic.mac1609_4 notAffectedByHostState false
par RSUExampleScenario.node[0].nic.mac1609_4 headerLength 0bit
attr unit bit
par RSUExampleScenario.node[0].nic.mac1609_4 address "\"auto\""
par RSUExampleScenario.node[0].nic.mac1609_4 useServiceChannel false
par RSUExampleScenario.node[0].nic.mac1609_4 serviceChannel 1
par RSUExampleScenario.node[0].nic.mac1609_4 bitrate 6000000bps
attr unit bps
par RSUExampleScenario.node[0].nic.mac1609_4 syncOffset 0.0003s
attr unit s
par RSUExampleScenario.node[0].nic.mac1609_4 txPower 20mW
attr unit mW
par RSUExampleScenario.node[0].nic.mac1609_4 queueSize 0
par RSUExampleScenario.node[0].nic.mac1609_4 dot11RTSThreshold 12000bit
attr unit bit
par RSUExampleScenario.node[0].nic.mac1609_4 dot11ShortRetryLimit 7
par RSUExampleScenario.node[0].nic.mac1609_4 dot11LongRetryLimit 4
par RSUExampleScenario.node[0].nic.mac1609_4 ackLength 112bit
attr unit bit
par RSUExampleScenario.node[0].nic.mac1609_4 useAcks false
par RSUExampleScenario.node[0].nic.mac1609_4 frameErrorRate 0
par RSUExampleScenario.node[0].nic.mac1609_4 ackErrorRate 0
scalar RSUExampleScenario.node[0].nic.mac1609_4 ReceivedUnicastPackets 0
scalar RSUExampleScenario.node[0].nic.mac1609_4 ReceivedBroadcasts 0
scalar RSUExampleScenario.node[0].nic.mac1609_4 SentPackets 12
scalar RSUExampleScenario.node[0].nic.mac1609_4 SentAcknowledgements 0
scalar RSUExampleScenario.node[0].nic.mac1609_4 RetriesExceeded 0
scalar RSUExampleScenario.node[0].nic.mac1609_4 SNIRLostPackets 0
scalar RSUExampleScenario.node[0].nic.mac1609_4 RXTXLostPackets 0
scalar RSUExampleScenario.node[0].nic.mac1609_4 TotalLostPackets 0
scalar RSUExampleScenario.node[0].nic.mac1609_4 DroppedPacketsInMac 0
scalar RSUExampleScenario.node[0].nic.mac1609_4 TooLittleTime 0
scalar RSUExampleScenario.node[0].nic.mac1609_4 TimesIntoBackoff 12
scalar RSUExampleScenario.node[0].nic.mac1609_4 SlotsBackoff 18
scalar RSUExampleScenario.node[0].nic.mac1609_4 NumInternalContention 0
scalar RSUExampleScenario.node[0].nic.mac1609_4 totalBusyTime 0.002796
scalar RSUExampleScenario.node[0].nic.mac1609_4 retriesExceeded:count 0
attr recordingmode count
attr source org_car2x_veins_modules_mac_sigRetriesExceeded
scalar RSUExampleScenario.node[0].nic.mac1609_4 sentAcks:count 0
attr recordingmode count
attr source org_car2x_veins_modules_mac_sigSentAck
scalar RSUExampleScenario.node[0].nic.mac1609_4 sentPackets:count 12
attr recordingmode count
attr source org_car2x_veins_modules_mac_sigSentPacket
scalar RSUExampleScenario.node[0].nic.mac1609_4 collisions:count 0
attr recordingmode count
attr source org_car2x_veins_modules_mac_sigCollision
scalar RSUExampleScenario.node[0].nic.mac1609_4 channelBusy:timeavg 0.00018639983747664
attr recordingmode timeavg
attr source org_car2x_veins_modules_mac_sigChannelBusy
par RSUExampleScenario.node[0].nic typename "\"org.car2x.veins.modules.nic.Nic80211p\""
par RSUExampleScenario.node[0].nic connectionManagerName "\"connectionManager\""
par RSUExampleScenario.node[0].veinsmobility typename "\"org.car2x.veins.modules.mobility.traci.TraCIMobility\""
par RSUExampleScenario.node[0].veinsmobility notAffectedByHostState true
par RSUExampleScenario.node[0].veinsmobility x 0
par RSUExampleScenario.node[0].veinsmobility y 0
par RSUExampleScenario.node[0].veinsmobility z 0
par RSUExampleScenario.node[0].veinsmobility xOrientation 1
par RSUExampleScenario.node[0].veinsmobility yOrientation 0
par RSUExampleScenario.node[0].veinsmobility zOrientation 0
par RSUExampleScenario.node[0].veinsmobility hostPositionOffset 0m
attr unit m
par RSUExampleScenario.node[0].veinsmobility setHostSpeed false
par RSUExampleScenario.node[0].veinsmobility accidentCount 1
par RSUExampleScenario.node[0].veinsmobility accidentStart 73s
attr unit s
par RSUExampleScenario.node[0].veinsmobility accidentDuration 50s
attr unit s
par RSUExampleScenario.node[0].veinsmobility accidentInterval "uniform(30s, 60s)"
attr unit s
scalar RSUExampleScenario.node[0].veinsmobility startTime 1
scalar RSUExampleScenario.node[0].veinsmobility totalTime 15
scalar RSUExampleScenario.node[0].veinsmobility stopTime 16.000013078608
scalar RSUExampleScenario.node[0].veinsmobility minSpeed 3.9838386473861
scalar RSUExampleScenario.node[0].veinsmobility maxSpeed 14.344597015356
scalar RSUExampleScenario.node[0].veinsmobility totalDistance 119.11919130329
scalar RSUExampleScenario.node[0].veinsmobility totalCO2Emission 63.420623086988
par RSUExampleScenario.node[0] typename "\"org.car2x.veins.nodes.Car\""
par RSUExampleScenario.node[0] applType "\"ICDDRVehicle\""
par RSUExampleScenario.node[0] nicType "\"Nic80211p\""
par RSUExampleScenario.node[0] veinsmobilityType "\"org.car2x.veins.modules.mobility.traci.TraCIMobility\""
par RSUExampleScenario.node[1].appl typename "\"ICDDRVehicle\""
par RSUExampleScenario.node[1].appl headerLength 80bit
attr unit bit
par RSUExampleScenario.node[1].appl sendBeacons false
par RSUExampleScenario.node[1].appl beaconLengthBits 256bit
attr unit bit
par RSUExampleScenario.node[1].appl beaconUserPriority 7
par RSUExampleScenario.node[1].appl beaconInterval 1s
attr unit s
par RSUExampleScenario.node[1].appl dataLengthBits 1024bit
attr unit bit
par RSUExampleScenario.node[1].appl dataOnSch false
par RSUExampleScenario.node[1].appl dataUserPriority 7
par RSUExampleScenario.node[1].appl avoidBeaconSynchronization true
par RSUExampleScenario.node[1].appl sendWSA false
par RSUExampleScenario.node[1].appl wsaLengthBits 250bit
attr unit bit
par RSUExampleScenario.node[1].appl wsaInterval 1s
attr unit s
scalar RSUExampleScenario.node[1].appl generatedWSMs 12
scalar RSUExampleScenario.node[1].appl receivedWSMs 0
scalar RSUExampleScenario.node[1].appl generatedBSMs 0
scalar RSUExampleScenario.node[1].appl receivedBSMs 0
scalar RSUExampleScenario.node[1].appl generatedWSAs 0
scalar RSUExampleScenario.node[1].appl receivedWSAs 0
par RSUExampleScenario.node[1].nic.phy80211p typename "\"org.car2x.veins.modules.phy.PhyLayer80211p\""
par RSUExampleScenario.node[1].nic.phy80211p recordStats false
par RSUExampleScenario.node[1].nic.phy80211p usePropagationDelay true
par RSUExampleScenario.node[1].nic.phy80211p noiseFloor -98dBm
attr unit dBm
par RSUExampleScenario.node[1].nic.phy80211p useNoiseFloor true
par RSUExampleScenario.node[1].nic.phy80211p antenna "<Antenna type=\"SampledAntenna1D\" id=\"monopole\">...</Antenna> at C:/Users/Pranitha/OneDrive/Desktop/ICDDR/ICDDR/simulations/\\antenna.xml:35"
par RSUExampleScenario.node[1].nic.phy80211p antennaOffsetX 0m
attr unit m
par RSUExampleScenario.node[1].nic.phy80211p antennaOffsetY 0m
attr unit m
par RSUExampleScenario.node[1].nic.phy80211p antennaOffsetZ 1.895m
attr unit m
par RSUExampleScenario.node[1].nic.phy80211p antennaOffsetYaw 0rad
attr unit rad
par RSUExampleScenario.node[1].nic.phy80211p analogueModels "<root>...</root> at C:/Users/Pranitha/OneDrive/Desktop/ICDDR/ICDDR/simulations/\\config.xml:34"
par RSUExampleScenario.node[1].nic.phy80211p decider "<root>...</root> at C:/Users/Pranitha/OneDrive/Desktop/ICDDR/ICDDR/simulations/\\config.xml:34"
par RSUExampleScenario.node[1].nic.phy80211p minPowerLevel -110dBm
attr unit dBm
par RSUExampleScenario.node[1].nic.phy80211p timeRXToTX 0s
attr unit s
par RSUExampleScenario.node[1].nic.phy80211p timeRXToSleep 0s
attr unit s
par RSUExampleScenario.node[1].nic.phy80211p timeTXToRX 0s
attr unit s
par RSUExampleScenario.node[1].nic.phy80211p timeTXToSleep 0s
attr unit s
par RSUExampleScenario.node[1].nic.phy80211p timeSleepToRX 0s
attr unit s
par RSUExampleScenario.node[1].nic.phy80211p timeSleepToTX 0s
attr unit s
par RSUExampleScenario.node[1].nic.phy80211p initialRadioState 0
par RSUExampleScenario.node[1].nic.phy80211p radioMinAtt 1
par RSUExampleScenario.node[1].nic.phy80211p radioMaxAtt 0
par RSUExampleScenario.node[1].nic.phy80211p nbRadioChannels 1
par RSUExampleScenario.node[1].nic.phy80211p initialRadioChannel 0
par RSUExampleScenario.node[1].nic.phy80211p ccaThreshold -65dBm
attr unit dBm
par RSUExampleScenario.node[1].nic.phy80211p collectCollisionStatistics false
par RSUExampleScenario.node[1].nic.phy80211p allowTxDuringRx false
scalar RSUExampleScenario.node[1].nic.phy80211p busyTime 0
par RSUExampleScenario.node[1].nic.mac1609_4 typename "\"org.car2x.veins.modules.mac.ieee80211p.Mac1609_4\""
par RSUExampleScenario.node[1].nic.mac1609_4 notAffectedByHostState false
par RSUExampleScenario.node[1].nic.mac1609_4 headerLength 0bit
attr unit bit
par RSUExampleScenario.node[1].nic.mac1609_4 address "\"auto\""
par RSUExampleScenario.node[1].nic.mac1609_4 useServiceChannel false
par RSUExampleScenario.node[1].nic.mac1609_4 serviceChannel 1
par RSUExampleScenario.node[1].nic.mac1609_4 bitrate 6000000bps
attr unit bps
par RSUExampleScenario.node[1].nic.mac1609_4 syncOffset 0.0003s
attr unit s
par RSUExampleScenario.node[1].nic.mac1609_4 txPower 20mW
attr unit mW
par RSUExampleScenario.node[1].nic.mac1609_4 queueSize 0
par RSUExampleScenario.node[1].nic.mac1609_4 dot11RTSThreshold 12000bit
attr unit bit
par RSUExampleScenario.node[1].nic.mac1609_4 dot11ShortRetryLimit 7
par RSUExampleScenario.node[1].nic.mac1609_4 dot11LongRetryLimit 4
par RSUExampleScenario.node[1].nic.mac1609_4 ackLength 112bit
attr unit bit
par RSUExampleScenario.node[1].nic.mac1609_4 useAcks false
par RSUExampleScenario.node[1].nic.mac1609_4 frameErrorRate 0
par RSUExampleScenario.node[1].nic.mac1609_4 ackErrorRate 0
scalar RSUExampleScenario.node[1].nic.mac1609_4 ReceivedUnicastPackets 0
scalar RSUExampleScenario.node[1].nic.mac1609_4 ReceivedBroadcasts 0
scalar RSUExampleScenario.node[1].nic.mac1609_4 SentPackets 12
scalar RSUExampleScenario.node[1].nic.mac1609_4 SentAcknowledgements 0
scalar RSUExampleScenario.node[1].nic.mac1609_4 RetriesExceeded 0
scalar RSUExampleScenario.node[1].nic.mac1609_4 SNIRLostPackets 0
scalar RSUExampleScenario.node[1].nic.mac1609_4 RXTXLostPackets 0
scalar RSUExampleScenario.node[1].nic.mac1609_4 TotalLostPackets 0
scalar RSUExampleScenario.node[1].nic.mac1609_4 DroppedPacketsInMac 0
scalar RSUExampleScenario.node[1].nic.mac1609_4 TooLittleTime 0
scalar RSUExampleScenario.node[1].nic.mac1609_4 TimesIntoBackoff 12
scalar RSUExampleScenario.node[1].nic.mac1609_4 SlotsBackoff 15
scalar RSUExampleScenario.node[1].nic.mac1609_4 NumInternalContention 0
scalar RSUExampleScenario.node[1].nic.mac1609_4 totalBusyTime 0.002796
scalar RSUExampleScenario.node[1].nic.mac1609_4 retriesExceeded:count 0
attr recordingmode count
attr source org_car2x_veins_modules_mac_sigRetriesExceeded
scalar RSUExampleScenario.node[1].nic.mac1609_4 sentAcks:count 0
attr recordingmode count
attr source org_car2x_veins_modules_mac_sigSentAck
scalar RSUExampleScenario.node[1].nic.mac1609_4 sentPackets:count 12
attr recordingmode count
attr source org_car2x_veins_modules_mac_sigSentPacket
scalar RSUExampleScenario.node[1].nic.mac1609_4 collisions:count 0
attr recordingmode count
attr source org_car2x_veins_modules_mac_sigCollision
scalar RSUExampleScenario.node[1].nic.mac1609_4 channelBusy:timeavg 0.00019971409914411
attr recordingmode timeavg
attr source org_car2x_veins_modules_mac_sigChannelBusy
par RSUExampleScenario.node[1].nic typename "\"org.car2x.veins.modules.nic.Nic80211p\""
par RSUExampleScenario.node[1].nic connectionManagerName "\"connectionManager\""
par RSUExampleScenario.node[1].veinsmobility typename "\"org.car2x.veins.modules.mobility.traci.TraCIMobility\""
par RSUExampleScenario.node[1].veinsmobility notAffectedByHostState true
par RSUExampleScenario.node[1].veinsmobility x 0
par RSUExampleScenario.node[1].veinsmobility y 0
par RSUExampleScenario.node[1].veinsmobility z 0
par RSUExampleScenario.node[1].veinsmobility xOrientation 1
par RSUExampleScenario.node[1].veinsmobility yOrientation 0
par RSUExampleScenario.node[1].veinsmobility zOrientation 0
par RSUExampleScenario.node[1].veinsmobility hostPositionOffset 0m
attr unit m
par RSUExampleScenario.node[1].veinsmobility setHostSpeed false
par RSUExampleScenario.node[1].veinsmobility accidentCount 0
par RSUExampleScenario.node[1].veinsmobility accidentStart 57.5845s
attr unit s
par RSUExampleScenario.node[1].veinsmobility accidentDuration "uniform(30s, 60s)"
attr unit s
par RSUExampleScenario.node[1].veinsmobility accidentInterval "uniform(30s, 60s)"
attr unit s
scalar RSUExampleScenario.node[1].veinsmobility startTime 2
scalar RSUExampleScenario.node[1].veinsmobility totalTime 14
scalar RSUExampleScenario.node[1].veinsmobility stopTime 16.000013078608
scalar RSUExampleScenario.node[1].veinsmobility minSpeed 4.1428915371655
scalar RSUExampleScenario.node[1].veinsmobility maxSpeed 14.533740870134
scalar RSUExampleScenario.node[1].veinsmobility totalDistance 111.23158525402
scalar RSUExampleScenario.node[1].veinsmobility totalCO2Emission 52.009290512988
par RSUExampleScenario.node[1] typename "\"org.car2x.veins.nodes.Car\""
par RSUExampleScenario.node[1] applType "\"ICDDRVehicle\""
par RSUExampleScenario.node[1] nicType "\"Nic80211p\""
par RSUExampleScenario.node[1] veinsmobilityType "\"org.car2x.veins.modules.mobility.traci.TraCIMobility\""
par RSUExampleScenario.node[2].appl typename "\"ICDDRVehicle\""
par RSUExampleScenario.node[2].appl headerLength 80bit
attr unit bit
par RSUExampleScenario.node[2].appl sendBeacons false
par RSUExampleScenario.node[2].appl beaconLengthBits 256bit
attr unit bit
par RSUExampleScenario.node[2].appl beaconUserPriority 7
par RSUExampleScenario.node[2].appl beaconInterval 1s
attr unit s
par RSUExampleScenario.node[2].appl dataLengthBits 1024bit
attr unit bit
par RSUExampleScenario.node[2].appl dataOnSch false
par RSUExampleScenario.node[2].appl dataUserPriority 7
par RSUExampleScenario.node[2].appl avoidBeaconSynchronization true
par RSUExampleScenario.node[2].appl sendWSA false
par RSUExampleScenario.node[2].appl wsaLengthBits 250bit
attr unit bit
par RSUExampleScenario.node[2].appl wsaInterval 1s
attr unit s
scalar RSUExampleScenario.node[2].appl generatedWSMs 9
scalar RSUExampleScenario.node[2].appl receivedWSMs 0
scalar RSUExampleScenario.node[2].appl generatedBSMs 0
scalar RSUExampleScenario.node[2].appl receivedBSMs 0
scalar RSUExampleScenario.node[2].appl generatedWSAs 0
scalar RSUExampleScenario.node[2].appl receivedWSAs 0
par RSUExampleScenario.node[2].nic.phy80211p typename "\"org.car2x.veins.modules.phy.PhyLayer80211p\""
par RSUExampleScenario.node[2].nic.phy80211p recordStats false
par RSUExampleScenario.node[2].nic.phy80211p usePropagationDelay true
par RSUExampleScenario.node[2].nic.phy80211p noiseFloor -98dBm
attr unit dBm
par RSUExampleScenario.node[2].nic.phy80211p useNoiseFloor true
par RSUExampleScenario.node[2].nic.phy80211p antenna "<Antenna type=\"SampledAntenna1D\" id=\"monopole\">...</Antenna> at C:/Users/Pranitha/OneDrive/Desktop/ICDDR/ICDDR/simulations/\\antenna.xml:35"
par RSUExampleScenario.node[2].nic.phy80211p antennaOffsetX 0m
attr unit m
par RSUExampleScenario.node[2].nic.phy80211p antennaOffsetY 0m
attr unit m
par RSUExampleScenario.node[2].nic.phy80211p antennaOffsetZ 1.895m
attr unit m
par RSUExampleScenario.node[2].nic.phy80211p antennaOffsetYaw 0rad
attr unit rad
par RSUExampleScenario.node[2].nic.phy80211p analogueModels "<root>...</root> at C:/Users/Pranitha/OneDrive/Desktop/ICDDR/ICDDR/simulations/\\config.xml:34"
par RSUExampleScenario.node[2].nic.phy80211p decider "<root>...</root> at C:/Users/Pranitha/OneDrive/Desktop/ICDDR/ICDDR/simulations/\\config.xml:34"
par RSUExampleScenario.node[2].nic.phy80211p minPowerLevel -110dBm
attr unit dBm
par RSUExampleScenario.node[2].nic.phy80211p timeRXToTX 0s
attr unit s
par RSUExampleScenario.node[2].nic.phy80211p timeRXToSleep 0s
attr unit s
par RSUExampleScenario.node[2].nic.phy80211p timeTXToRX 0s
attr unit s
par RSUExampleScenario.node[2].nic.phy80211p timeTXToSleep 0s
attr unit s
par RSUExampleScenario.node[2].nic.phy80211p timeSleepToRX 0s
attr unit s
par RSUExampleScenario.node[2].nic.phy80211p timeSleepToTX 0s
attr unit s
par RSUExampleScenario.node[2].nic.phy80211p initialRadioState 0
par RSUExampleScenario.node[2].nic.phy80211p radioMinAtt 1
par RSUExampleScenario.node[2].nic.phy80211p radioMaxAtt 0
par RSUExampleScenario.node[2].nic.phy80211p nbRadioChannels 1
par RSUExampleScenario.node[2].nic.phy80211p initialRadioChannel 0
par RSUExampleScenario.node[2].nic.phy80211p ccaThreshold -65dBm
attr unit dBm
par RSUExampleScenario.node[2].nic.phy80211p collectCollisionStatistics false
par RSUExampleScenario.node[2].nic.phy80211p allowTxDuringRx false
scalar RSUExampleScenario.node[2].nic.phy80211p busyTime 0
par RSUExampleScenario.node[2].nic.mac1609_4 typename "\"org.car2x.veins.modules.mac.ieee80211p.Mac1609_4\""
par RSUExampleScenario.node[2].nic.mac1609_4 notAffectedByHostState false
par RSUExampleScenario.node[2].nic.mac1609_4 headerLength 0bit
attr unit bit
par RSUExampleScenario.node[2].nic.mac1609_4 address "\"auto\""
par RSUExampleScenario.node[2].nic.mac1609_4 useServiceChannel false
par RSUExampleScenario.node[2].nic.mac1609_4 serviceChannel 1
par RSUExampleScenario.node[2].nic.mac1609_4 bitrate 6000000bps
attr unit bps
par RSUExampleScenario.node[2].nic.mac1609_4 syncOffset 0.0003s
attr unit s
par RSUExampleScenario.node[2].nic.mac1609_4 txPower 20mW
attr unit mW
par RSUExampleScenario.node[2].nic.mac1609_4 queueSize 0
par RSUExampleScenario.node[2].nic.mac1609_4 dot11RTSThreshold 12000bit
attr unit bit
par RSUExampleScenario.node[2].nic.mac1609_4 dot11ShortRetryLimit 7
par RSUExampleScenario.node[2].nic.mac1609_4 dot11LongRetryLimit 4
par RSUExampleScenario.node[2].nic.mac1609_4 ackLength 112bit
attr unit bit
par RSUExampleScenario.node[2].nic.mac1609_4 useAcks false
par RSUExampleScenario.node[2].nic.mac1609_4 frameErrorRate 0
par RSUExampleScenario.node[2].nic.mac1609_4 ackErrorRate 0
scalar RSUExampleScenario.node[2].nic.mac1609_4 ReceivedUnicastPackets 0
scalar RSUExampleScenario.node[2].nic.mac1609_4 ReceivedBroadcasts 0
scalar RSUExampleScenario.node[2].nic.mac1609_4 SentPackets 9
scalar RSUExampleScenario.node[2].nic.mac1609_4 SentAcknowledgements 0
scalar RSUExampleScenario.node[2].nic.mac1609_4 RetriesExceeded 0
scalar RSUExampleScenario.node[2].nic.mac1609_4 SNIRLostPackets 0
scalar RSUExampleScenario.node[2].nic.mac1609_4 RXTXLostPackets 0
scalar RSUExampleScenario.node[2].nic.mac1609_4 TotalLostPackets 0
scalar RSUExampleScenario.node[2].nic.mac1609_4 DroppedPacketsInMac 0
scalar RSUExampleScenario.node[2].nic.mac1609_4 TooLittleTime 0
scalar RSUExampleScenario.node[2].nic.mac1609_4 TimesIntoBackoff 9
scalar RSUExampleScenario.node[2].nic.mac1609_4 SlotsBackoff 9
scalar RSUExampleScenario.node[2].nic.mac1609_4 NumInternalContention 0
scalar RSUExampleScenario.node[2].nic.mac1609_4 totalBusyTime 0.002097
scalar RSUExampleScenario.node[2].nic.mac1609_4 retriesExceeded:count 0
attr recordingmode count
attr source org_car2x_veins_modules_mac_sigRetriesExceeded
scalar RSUExampleScenario.node[2].nic.mac1609_4 sentAcks:count 0
attr recordingmode count
attr source org_car2x_veins_modules_mac_sigSentAck
scalar RSUExampleScenario.node[2].nic.mac1609_4 sentPackets:count 9
attr recordingmode count
attr source org_car2x_veins_modules_mac_sigSentPacket
scalar RSUExampleScenario.node[2].nic.mac1609_4 collisions:count 0
attr recordingmode count
attr source org_car2x_veins_modules_mac_sigCollision
scalar RSUExampleScenario.node[2].nic.mac1609_4 channelBusy:timeavg 0.00016130753002477
attr recordingmode timeavg
attr source org_car2x_veins_modules_mac_sigChannelBusy
par RSUExampleScenario.node[2].nic typename "\"org.car2x.veins.modules.nic.Nic80211p\""
par RSUExampleScenario.node[2].nic connectionManagerName "\"connectionManager\""
par RSUExampleScenario.node[2].veinsmobility typename "\"org.car2x.veins.modules.mobility.traci.TraCIMobility\""
par RSUExampleScenario.node[2].veinsmobility notAffectedByHostState true
par RSUExampleScenario.node[2].veinsmobility x 0
par RSUExampleScenario.node[2].veinsmobility y 0
par RSUExampleScenario.node[2].veinsmobility z 0
par RSUExampleScenario.node[2].veinsmobility xOrientation 1
par RSUExampleScenario.node[2].veinsmobility yOrientation 0
par RSUExampleScenario.node[2].veinsmobility zOrientation 0
par RSUExampleScenario.node[2].veinsmobility hostPositionOffset 0m
attr unit m
par RSUExampleScenario.node[2].veinsmobility setHostSpeed false
par RSUExampleScenario.node[2].veinsmobility accidentCount 0
par RSUExampleScenario.node[2].veinsmobility accidentStart 35.0054s
attr unit s
par RSUExampleScenario.node[2].veinsmobility accidentDuration "uniform(30s, 60s)"
attr unit s
par RSUExampleScenario.node[2].veinsmobility accidentInterval "uniform(30s, 60s)"
attr unit s
scalar RSUExampleScenario.node[2].veinsmobility startTime 3
scalar RSUExampleScenario.node[2].veinsmobility totalTime 13
scalar RSUExampleScenario.node[2].veinsmobility stopTime 16.000013078608
scalar RSUExampleScenario.node[2].veinsmobility minSpeed 3.7961614444558
scalar RSUExampleScenario.node[2].veinsmobility maxSpeed 22.870733518024
scalar RSUExampleScenario.node[2].veinsmobility totalDistance 192.29810314128
scalar RSUExampleScenario.node[2].veinsmobility totalCO2Emission 94.468703049735
par RSUExampleScenario.node[2] typename "\"org.car2x.veins.nodes.Car\""
par RSUExampleScenario.node[2] applType "\"ICDDRVehicle\""
par RSUExampleScenario.node[2] nicType "\"Nic80211p\""
par RSUExampleScenario.node[2] veinsmobilityType "\"org.car2x.veins.modules.mobility.traci.TraCIMobility\""
par RSUExampleScenario.node[3].appl typename "\"ICDDRVehicle\""
par RSUExampleScenario.node[3].appl headerLength 80bit
attr unit bit
par RSUExampleScenario.node[3].appl sendBeacons false
par RSUExampleScenario.node[3].appl beaconLengthBits 256bit
attr unit bit
par RSUExampleScenario.node[3].appl beaconUserPriority 7
par RSUExampleScenario.node[3].appl beaconInterval 1s
attr unit s
par RSUExampleScenario.node[3].appl dataLengthBits 1024bit
attr unit bit
par RSUExampleScenario.node[3].appl dataOnSch false
par RSUExampleScenario.node[3].appl dataUserPriority 7
par RSUExampleScenario.node[3].appl avoidBeaconSynchronization true
par RSUExampleScenario.node[3].appl sendWSA false
par RSUExampleScenario.node[3].appl wsaLengthBits 250bit
attr unit bit
par RSUExampleScenario.node[3].appl wsaInterval 1s
attr unit s
scalar RSUExampleScenario.node[3].appl generatedWSMs 11
scalar RSUExampleScenario.node[3].appl receivedWSMs 0
scalar RSUExampleScenario.node[3].appl generatedBSMs 0
scalar RSUExampleScenario.node[3].appl receivedBSMs 0
scalar RSUExampleScenario.node[3].appl generatedWSAs 0
scalar RSUExampleScenario.node[3].appl receivedWSAs 0
par RSUExampleScenario.node[3].nic.phy80211p typename "\"org.car2x.veins.modules.phy.PhyLayer80211p\""
par RSUExampleScenario.node[3].nic.phy80211p recordStats false
par RSUExampleScenario.node[3].nic.phy80211p usePropagationDelay true
par RSUExampleScenario.node[3].nic.phy80211p noiseFloor -98dBm
attr unit dBm
par RSUExampleScenario.node[3].nic.phy80211p useNoiseFloor true
par RSUExampleScenario.node[3].nic.phy80211p antenna "<Antenna type=\"SampledAntenna1D\" id=\"monopole\">...</Antenna> at C:/Users/Pranitha/OneDrive/Desktop/ICDDR/ICDDR/simulations/\\antenna.xml:35"
par RSUExampleScenario.node[3].nic.phy80211p antennaOffsetX 0m
attr unit m
par RSUExampleScenario.node[3].nic.phy80211p antennaOffsetY 0m
attr unit m
par RSUExampleScenario.node[3].nic.phy80211p antennaOffsetZ 1.895m
attr unit m
par RSUExampleScenario.node[3].nic.phy80211p antennaOffsetYaw 0rad
attr unit rad
par RSUExampleScenario.node[3].nic.phy80211p analogueModels "<root>...</root> at C:/Users/Pranitha/OneDrive/Desktop/ICDDR/ICDDR/simulations/\\config.xml:34"
par RSUExampleScenario.node[3].nic.phy80211p decider "<root>...</root> at C:/Users/Pranitha/OneDrive/Desktop/ICDDR/ICDDR/simulations/\\config.xml:34"
par RSUExampleScenario.node[3].nic.phy80211p minPowerLevel -110dBm
attr unit dBm
par RSUExampleScenario.node[3].nic.phy80211p timeRXToTX 0s
attr unit s
par RSUExampleScenario.node[3].nic.phy80211p timeRXToSleep 0s
attr unit s
par RSUExampleScenario.node[3].nic.phy80211p timeTXToRX 0s
attr unit s
par RSUExampleScenario.node[3].nic.phy80211p timeTXToSleep 0s
attr unit s
par RSUExampleScenario.node[3].nic.phy80211p timeSleepToRX 0s
attr unit s
par RSUExampleScenario.node[3].nic.phy80211p timeSleepToTX 0s
attr unit s
par RSUExampleScenario.node[3].nic.phy80211p initialRadioState 0
par RSUExampleScenario.node[3].nic.phy80211p radioMinAtt 1
par RSUExampleScenario.node[3].nic.phy80211p radioMaxAtt 0
par RSUExampleScenario.node[3].nic.phy80211p nbRadioChannels 1
par RSUExampleScenario.node[3].nic.phy80211p initialRadioChannel 0
par RSUExampleScenario.node[3].nic.phy80211p ccaThreshold -65dBm
attr unit dBm
par RSUExampleScenario.node[3].nic.phy80211p collectCollisionStatistics false
par RSUExampleScenario.node[3].nic.phy80211p allowTxDuringRx false
scalar RSUExampleScenario.node[3].nic.phy80211p busyTime 1.9333312262266e-05
par RSUExampleScenario.node[3].nic.mac1609_4 typename "\"org.car2x.veins.modules.mac.ieee80211p.Mac1609_4\""
par RSUExampleScenario.node[3].nic.mac1609_4 notAffectedByHostState false
par RSUExampleScenario.node[3].nic.mac1609_4 headerLength 0bit
attr unit bit
par RSUExampleScenario.node[3].nic.mac1609_4 address "\"auto\""
par RSUExampleScenario.node[3].nic.mac1609_4 useServiceChannel false
par RSUExampleScenario.node[3].nic.mac1609_4 serviceChannel 1
par RSUExampleScenario.node[3].nic.mac1609_4 bitrate 6000000bps
attr unit bps
par RSUExampleScenario.node[3].nic.mac1609_4 syncOffset 0.0003s
attr unit s
par RSUExampleScenario.node[3].nic.mac1609_4 txPower 20mW
attr unit mW
par RSUExampleScenario.node[3].nic.mac1609_4 queueSize 0
par RSUExampleScenario.node[3].nic.mac1609_4 dot11RTSThreshold 12000bit
attr unit bit
par RSUExampleScenario.node[3].nic.mac1609_4 dot11ShortRetryLimit 7
par RSUExampleScenario.node[3].nic.mac1609_4 dot11LongRetryLimit 4
par RSUExampleScenario.node[3].nic.mac1609_4 ackLength 112bit
attr unit bit
par RSUExampleScenario.node[3].nic.mac1609_4 useAcks false
par RSUExampleScenario.node[3].nic.mac1609_4 frameErrorRate 0
par RSUExampleScenario.node[3].nic.mac1609_4 ackErrorRate 0
scalar RSUExampleScenario.node[3].nic.mac1609_4 ReceivedUnicastPackets 0
scalar RSUExampleScenario.node[3].nic.mac1609_4 ReceivedBroadcasts 0
scalar RSUExampleScenario.node[3].nic.mac1609_4 SentPackets 11
scalar RSUExampleScenario.node[3].nic.mac1609_4 SentAcknowledgements 0
scalar RSUExampleScenario.node[3].nic.mac1609_4 RetriesExceeded 0
scalar RSUExampleScenario.node[3].nic.mac1609_4 SNIRLostPackets 1
scalar RSUExampleScenario.node[3].nic.mac1609_4 RXTXLostPackets 0
scalar RSUExampleScenario.node[3].nic.mac1609_4 TotalLostPackets 1
scalar RSUExampleScenario.node[3].nic.mac1609_4 DroppedPacketsInMac 0
scalar RSUExampleScenario.node[3].nic.mac1609_4 TooLittleTime 0
scalar RSUExampleScenario.node[3].nic.mac1609_4 TimesIntoBackoff 11
scalar RSUExampleScenario.node[3].nic.mac1609_4 SlotsBackoff 18
scalar RSUExampleScenario.node[3].nic.mac1609_4 NumInternalContention 0
scalar RSUExampleScenario.node[3].nic.mac1609_4 totalBusyTime 0.002795
scalar RSUExampleScenario.node[3].nic.mac1609_4 retriesExceeded:count 0
attr recordingmode count
attr source org_car2x_veins_modules_mac_sigRetriesExceeded
scalar RSUExampleScenario.node[3].nic.mac1609_4 sentAcks:count 0
attr recordingmode count
attr source org_car2x_veins_modules_mac_sigSentAck
scalar RSUExampleScenario.node[3].nic.mac1609_4 sentPackets:count 11
attr recordingmode count
attr source org_car2x_veins_modules_mac_sigSentPacket
scalar RSUExampleScenario.node[3].nic.mac1609_4 collisions:count 0
attr recordingmode count
attr source org_car2x_veins_modules_mac_sigCollision
scalar RSUExampleScenario.node[3].nic.mac1609_4 channelBusy:timeavg 0.0002329164128148
attr recordingmode timeavg
attr source org_car2x_veins_modules_mac_sigChannelBusy
par RSUExampleScenario.node[3].nic typename "\"org.car2x.veins.modules.nic.Nic80211p\""
par RSUExampleScenario.node[3].nic connectionManagerName "\"connectionManager\""
par RSUExampleScenario.node[3].veinsmobility typename "\"org.car2x.veins.modules.mobility.traci.TraCIMobility\""
par RSUExampleScenario.node[3].veinsmobility notAffectedByHostState true
par RSUExampleScenario.node[3].veinsmobility x 0
par RSUExampleScenario.node[3].veinsmobility y 0
par RSUExampleScenario.node[3].veinsmobility z 0
par RSUExampleScenario.node[3].veinsmobility xOrientation 1
par RSUExampleScenario.node[3].veinsmobility yOrientation 0
par RSUExampleScenario.node[3].veinsmobility zOrientation 0
par RSUExampleScenario.node[3].veinsmobility hostPositionOffset 0m
attr unit m
par RSUExampleScenario.node[3].veinsmobility setHostSpeed false
par RSUExampleScenario.node[3].veinsmobility accidentCount 0
par RSUExampleScenario.node[3].veinsmobility accidentStart 50.9229s
attr unit s
par RSUExampleScenario.node[3].veinsmobility accidentDuration "uniform(30s, 60s)"
attr unit s
par RSUExampleScenario.node[3].veinsmobility accidentInterval "uniform(30s, 60s)"
attr unit s
scalar RSUExampleScenario.node[3].veinsmobility startTime 4
scalar RSUExampleScenario.node[3].veinsmobility totalTime 12
scalar RSUExampleScenario.node[3].veinsmobility stopTime 16.000013078608
scalar RSUExampleScenario.node[3].veinsmobility minSpeed 4.0445249643002
scalar RSUExampleScenario.node[3].veinsmobility maxSpeed 21.911304182591
scalar RSUExampleScenario.node[3].veinsmobility totalDistance 120.02502487556
scalar RSUExampleScenario.node[3].veinsmobility totalCO2Emission 82.341276663197
par RSUExampleScenario.node[3] typename "\"org.car2x.veins.nodes.Car\""
par RSUExampleScenario.node[3] applType "\"ICDDRVehicle\""
par RSUExampleScenario.node[3] nicType "\"Nic80211p\""
par RSUExampleScenario.node[3] veinsmobilityType "\"org.car2x.veins.modules.mobility.traci.TraCIMobility\""
par RSUExampleScenario.node[4].appl typename "\"ICDDRVehicle\""
par RSUExampleScenario.node[4].appl headerLength 80bit
attr unit bit
par RSUExampleScenario.node[4].appl sendBeacons false
par RSUExampleScenario.node[4].appl beaconLengthBits 256bit
attr unit bit
par RSUExampleScenario.node[4].appl beaconUserPriority 7
par RSUExampleScenario.node[4].appl beaconInterval 1s
attr unit s
par RSUExampleScenario.node[4].appl dataLengthBits 1024bit
attr unit bit
par RSUExampleScenario.node[4].appl dataOnSch false
par RSUExampleScenario.node[4].appl dataUserPriority 7
par RSUExampleScenario.node[4].appl avoidBeaconSynchronization true
par RSUExampleScenario.node[4].appl sendWSA false
par RSUExampleScenario.node[4].appl wsaLengthBits 250bit
attr unit bit
par RSUExampleScenario.node[4].appl wsaInterval 1s
attr unit s
scalar RSUExampleScenario.node[4].appl generatedWSMs 11
scalar RSUExampleScenario.node[4].appl receivedWSMs 0
scalar RSUExampleScenario.node[4].appl generatedBSMs 0
scalar RSUExampleScenario.node[4].appl receivedBSMs 0
scalar RSUExampleScenario.node[4].appl generatedWSAs 0
scalar RSUExampleScenario.node[4].appl receivedWSAs 0
par RSUExampleScenario.node[4].nic.phy80211p typename "\"org.car2x.veins.modules.phy.PhyLayer80211p\""
par RSUExampleScenario.node[4].nic.phy80211p recordStats false
par RSUExampleScenario.node[4].nic.phy80211p usePropagationDelay true
par RSUExampleScenario.node[4].nic.phy80211p noiseFloor -98dBm
attr unit dBm
par RSUExampleScenario.node[4].nic.phy80211p useNoiseFloor true
par RSUExampleScenario.node[4].nic.phy80211p antenna "<Antenna type=\"SampledAntenna1D\" id=\"monopole\">...</Antenna> at C:/Users/Pranitha/OneDrive/Desktop/ICDDR/ICDDR/simulations/\\antenna.xml:35"
par RSUExampleScenario.node[4].nic.phy80211p antennaOffsetX 0m
attr unit m
par RSUExampleScenario.node[4].nic.phy80211p antennaOffsetY 0m
attr unit m
par RSUExampleScenario.node[4].nic.phy80211p antennaOffsetZ 1.895m
attr unit m
par RSUExampleScenario.node[4].nic.phy80211p antennaOffsetYaw 0rad
attr unit rad
par RSUExampleScenario.node[4].nic.phy80211p analogueModels "<root>...</root> at C:/Users/Pranitha/OneDrive/Desktop/ICDDR/ICDDR/simulations/\\config.xml:34"
par RSUExampleScenario.node[4].nic.phy80211p decider "<root>...</root> at C:/Users/Pranitha/OneDrive/Desktop/ICDDR/ICDDR/simulations/\\config.xml:34"
par RSUExampleScenario.node[4].nic.phy80211p minPowerLevel -110dBm
attr unit dBm
par RSUExampleScenario.node[4].nic.phy80211p timeRXToTX 0s
attr unit s
par RSUExampleScenario.node[4].nic.phy80211p timeRXToSleep 0s
attr unit s
par RSUExampleScenario.node[4].nic.phy80211p timeTXToRX 0s
attr unit s
par RSUExampleScenario.node[4].nic.phy80211p timeTXToSleep 0s
attr unit s
par RSUExampleScenario.node[4].nic.phy80211p timeSleepToRX 0s
attr unit s
par RSUExampleScenario.node[4].nic.phy80211p timeSleepToTX 0s
attr unit s
par RSUExampleScenario.node[4].nic.phy80211p initialRadioState 0
par RSUExampleScenario.node[4].nic.phy80211p radioMinAtt 1
par RSUExampleScenario.node[4].nic.phy80211p radioMaxAtt 0
par RSUExampleScenario.node[4].nic.phy80211p nbRadioChannels 1
par RSUExampleScenario.node[4].nic.phy80211p initialRadioChannel 0
par RSUExampleScenario.node[4].nic.phy80211p ccaThreshold -65dBm
attr unit dBm
par RSUExampleScenario.node[4].nic.phy80211p collectCollisionStatistics false
par RSUExampleScenario.node[4].nic.phy80211p allowTxDuringRx false
scalar RSUExampleScenario.node[4].nic.phy80211p busyTime 0
par RSUExampleScenario.node[4].nic.mac1609_4 typename "\"org.car2x.veins.modules.mac.ieee80211p.Mac1609_4\""
par RSUExampleScenario.node[4].nic.mac1609_4 notAffectedByHostState false
par RSUExampleScenario.node[4].nic.mac1609_4 headerLength 0bit
attr unit bit
par RSUExampleScenario.node[4].nic.mac1609_4 address "\"auto\""
par RSUExampleScenario.node[4].nic.mac1609_4 useServiceChannel false
par RSUExampleScenario.node[4].nic.mac1609_4 serviceChannel 1
par RSUExampleScenario.node[4].nic.mac1609_4 bitrate 6000000bps
attr unit bps
par RSUExampleScenario.node[4].nic.mac1609_4 syncOffset 0.0003s
attr unit s
par RSUExampleScenario.node[4].nic.mac1609_4 txPower 20mW
attr unit mW
par RSUExampleScenario.node[4].nic.mac1609_4 queueSize 0
par RSUExampleScenario.node[4].nic.mac1609_4 dot11RTSThreshold 12000bit
attr unit bit
par RSUExampleScenario.node[4].nic.mac1609_4 dot11ShortRetryLimit 7
par RSUExampleScenario.node[4].nic.mac1609_4 dot11LongRetryLimit 4
par RSUExampleScenario.node[4].nic.mac1609_4 ackLength 112bit
attr unit bit
par RSUExampleScenario.node[4].nic.mac1609_4 useAcks false
par RSUExampleScenario.node[4].nic.mac1609_4 frameErrorRate 0
par RSUExampleScenario.node[4].nic.mac1609_4 ackErrorRate 0
scalar RSUExampleScenario.node[4].nic.mac1609_4 ReceivedUnicastPackets 0
scalar RSUExampleScenario.node[4].nic.mac1609_4 ReceivedBroadcasts 0
scalar RSUExampleScenario.node[4].nic.mac1609_4 SentPackets 11
scalar RSUExampleScenario.node[4].nic.mac1609_4 SentAcknowledgements 0
scalar RSUExampleScenario.node[4].nic.mac1609_4 RetriesExceeded 0
scalar RSUExampleScenario.node[4].nic.mac1609_4 SNIRLostPackets 0
scalar RSUExampleScenario.node[4].nic.mac1609_4 RXTXLostPackets 0
scalar RSUExampleScenario.node[4].nic.mac1609_4 TotalLostPackets 0
scalar RSUExampleScenario.node[4].nic.mac1609_4 DroppedPacketsInMac 0
scalar RSUExampleScenario.node[4].nic.mac1609_4 TooLittleTime 0
scalar RSUExampleScenario.node[4].nic.mac1609_4 TimesIntoBackoff 11
scalar RSUExampleScenario.node[4].nic.mac1609_4 SlotsBackoff 10
scalar RSUExampleScenario.node[4].nic.mac1609_4 NumInternalContention 0
scalar RSUExampleScenario.node[4].nic.mac1609_4 totalBusyTime 0.002563
scalar RSUExampleScenario.node[4].nic.mac1609_4 retriesExceeded:count 0
attr recordingmode count
attr source org_car2x_veins_modules_mac_sigRetriesExceeded
scalar RSUExampleScenario.node[4].nic.mac1609_4 sentAcks:count 0
attr recordingmode count
attr source org_car2x_veins_modules_mac_sigSentAck
scalar RSUExampleScenario.node[4].nic.mac1609_4 sentPackets:count 11
attr recordingmode count
attr source org_car2x_veins_modules_mac_sigSentPacket
scalar RSUExampleScenario.node[4].nic.mac1609_4 collisions:count 0
attr recordingmode count
attr source org_car2x_veins_modules_mac_sigCollision
scalar RSUExampleScenario.node[4].nic.mac1609_4 channelBusy:timeavg 0.00023299972297163
attr recordingmode timeavg
attr source org_car2x_veins_modules_mac_sigChannelBusy
par RSUExampleScenario.node[4].nic typename "\"org.car2x.veins.modules.nic.Nic80211p\""
par RSUExampleScenario.node[4].nic connectionManagerName "\"connectionManager\""
par RSUExampleScenario.node[4].veinsmobility typename "\"org.car2x.veins.modules.mobility.traci.TraCIMobility\""
par RSUExampleScenario.node[4].veinsmobility notAffectedByHostState true
par RSUExampleScenario.node[4].veinsmobility x 0
par RSUExampleScenario.node[4].veinsmobility y 0
par RSUExampleScenario.node[4].veinsmobility z 0
par RSUExampleScenario.node[4].veinsmobility xOrientation 1
par RSUExampleScenario.node[4].veinsmobility yOrientation 0
par RSUExampleScenario.node[4].veinsmobility zOrientation 0
par RSUExampleScenario.node[4].veinsmobility hostPositionOffset 0m
attr unit m
par RSUExampleScenario.node[4].veinsmobility setHostSpeed false
par RSUExampleScenario.node[4].veinsmobility accidentCount 0
par RSUExampleScenario.node[4].veinsmobility accidentStart 35.1489s
attr unit s
par RSUExampleScenario.node[4].veinsmobility accidentDuration "uniform(30s, 60s)"
attr unit s
par RSUExampleScenario.node[4].veinsmobility accidentInterval "uniform(30s, 60s)"
attr unit s
scalar RSUExampleScenario.node[4].veinsmobility startTime 5
scalar RSUExampleScenario.node[4].veinsmobility totalTime 11
scalar RSUExampleScenario.node[4].veinsmobility stopTime 16.000013078608
scalar RSUExampleScenario.node[4].veinsmobility minSpeed 4.1624601069549
scalar RSUExampleScenario.node[4].veinsmobility maxSpeed 12.209940097229
scalar RSUExampleScenario.node[4].veinsmobility totalDistance 105.7901261944
scalar RSUExampleScenario.node[4].veinsmobility totalCO2Emission 35.397935250854
par RSUExampleScenario.node[4] typename "\"org.car2x.veins.nodes.Car\""
par RSUExampleScenario.node[4] applType "\"ICDDRVehicle\""
par RSUExampleScenario.node[4] nicType "\"Nic80211p\""
par RSUExampleScenario.node[4] veinsmobilityType "\"org.car2x.veins.modules.mobility.traci.TraCIMobility\""
par RSUExampleScenario.node[5].appl typename "\"ICDDRVehicle\""
par RSUExampleScenario.node[5].appl headerLength 80bit
attr unit bit
par RSUExampleScenario.node[5].appl sendBeacons false
par RSUExampleScenario.node[5].appl beaconLengthBits 256bit
attr unit bit
par RSUExampleScenario.node[5].appl beaconUserPriority 7
par RSUExampleScenario.node[5].appl beaconInterval 1s
attr unit s
par RSUExampleScenario.node[5].appl dataLengthBits 1024bit
attr unit bit
par RSUExampleScenario.node[5].appl dataOnSch false
par RSUExampleScenario.node[5].appl dataUserPriority 7
par RSUExampleScenario.node[5].appl avoidBeaconSynchronization true
par RSUExampleScenario.node[5].appl sendWSA false
par RSUExampleScenario.node[5].appl wsaLengthBits 250bit
attr unit bit
par RSUExampleScenario.node[5].appl wsaInterval 1s
attr unit s
scalar RSUExampleScenario.node[5].appl generatedWSMs 10
scalar RSUExampleScenario.node[5].appl receivedWSMs 0
scalar RSUExampleScenario.node[5].appl generatedBSMs 0
scalar RSUExampleScenario.node[5].appl receivedBSMs 0
scalar RSUExampleScenario.node[5].appl generatedWSAs 0
scalar RSUExampleScenario.node[5].appl receivedWSAs 0
par RSUExampleScenario.node[5].nic.phy80211p typename "\"org.car2x.veins.modules.phy.PhyLayer80211p\""
par RSUExampleScenario.node[5].nic.phy80211p recordStats false
par RSUExampleScenario.node[5].nic.phy80211p usePropagationDelay true
par RSUExampleScenario.node[5].nic.phy80211p noiseFloor -98dBm
attr unit dBm
par RSUExampleScenario.node[5].nic.phy80211p useNoiseFloor true
par RSUExampleScenario.node[5].nic.phy80211p antenna "<Antenna type=\"SampledAntenna1D\" id=\"monopole\">...</Antenna> at C:/Users/Pranitha/OneDrive/Desktop/ICDDR/ICDDR/simulations/\\antenna.xml:35"
par RSUExampleScenario.node[5].nic.phy80211p antennaOffsetX 0m
attr unit m
par RSUExampleScenario.node[5].nic.phy80211p antennaOffsetY 0m
attr unit m
par RSUExampleScenario.node[5].nic.phy80211p antennaOffsetZ 1.895m
attr unit m
par RSUExampleScenario.node[5].nic.phy80211p antennaOffsetYaw 0rad
attr unit rad
par RSUExampleScenario.node[5].nic.phy80211p analogueModels "<root>...</root> at C:/Users/Pranitha/OneDrive/Desktop/ICDDR/ICDDR/simulations/\\config.xml:34"
par RSUExampleScenario.node[5].nic.phy80211p decider "<root>...</root> at C:/Users/Pranitha/OneDrive/Desktop/ICDDR/ICDDR/simulations/\\config.xml:34"
par RSUExampleScenario.node[5].nic.phy80211p minPowerLevel -110dBm
attr unit dBm
par RSUExampleScenario.node[5].nic.phy80211p timeRXToTX 0s
attr unit s
par RSUExampleScenario.node[5].nic.phy80211p timeRXToSleep 0s
attr unit s
par RSUExampleScenario.node[5].nic.phy80211p timeTXToRX 0s
attr unit s
par RSUExampleScenario.node[5].nic.phy80211p timeTXToSleep 0s
attr unit s
par RSUExampleScenario.node[5].nic.phy80211p timeSleepToRX 0s
attr unit s
par RSUExampleScenario.node[5].nic.phy80211p timeSleepToTX 0s
attr unit s
par RSUExampleScenario.node[5].nic.phy80211p initialRadioState 0
par RSUExampleScenario.node[5].nic.phy80211p radioMinAtt 1
par RSUExampleScenario.node[5].nic.phy80211p radioMaxAtt 0
par RSUExampleScenario.node[5].nic.phy80211p nbRadioChannels 1
par RSUExampleScenario.node[5].nic.phy80211p initialRadioChannel 0
par RSUExampleScenario.node[5].nic.phy80211p ccaThreshold -65dBm
attr unit dBm
par RSUExampleScenario.node[5].nic.phy80211p collectCollisionStatistics false
par RSUExampleScenario.node[5].nic.phy80211p allowTxDuringRx false
scalar RSUExampleScenario.node[5].nic.phy80211p busyTime 0
par RSUExampleScenario.node[5].nic.mac1609_4 typename "\"org.car2x.veins.modules.mac.ieee80211p.Mac1609_4\""
par RSUExampleScenario.node[5].nic.mac1609_4 notAffectedByHostState false
par RSUExampleScenario.node[5].nic.mac1609_4 headerLength 0bit
attr unit bit
par RSUExampleScenario.node[5].nic.mac1609_4 address "\"auto\""
par RSUExampleScenario.node[5].nic.mac1609_4 useServiceChannel false
par RSUExampleScenario.node[5].nic.mac1609_4 serviceChannel 1
par RSUExampleScenario.node[5].nic.mac1609_4 bitrate 6000000bps
attr unit bps
par RSUExampleScenario.node[5].nic.mac1609_4 syncOffset 0.0003s
attr unit s
par RSUExampleScenario.node[5].nic.mac1609_4 txPower 20mW
attr unit mW
par RSUExampleScenario.node[5].nic.mac1609_4 queueSize 0
par RSUExampleScenario.node[5].nic.mac1609_4 dot11RTSThreshold 12000bit
attr unit bit
par RSUExampleScenario.node[5].nic.mac1609_4 dot11ShortRetryLimit 7
par RSUExampleScenario.node[5].nic.mac1609_4 dot11LongRetryLimit 4
par RSUExampleScenario.node[5].nic.mac1609_4 ackLength 112bit
attr unit bit
par RSUExampleScenario.node[5].nic.mac1609_4 useAcks false
par RSUExampleScenario.node[5].nic.mac1609_4 frameErrorRate 0
par RSUExampleScenario.node[5].nic.mac1609_4 ackErrorRate 0
scalar RSUExampleScenario.node[5].nic.mac1609_4 ReceivedUnicastPackets 0
scalar RSUExampleScenario.node[5].nic.mac1609_4 ReceivedBroadcasts 0
scalar RSUExampleScenario.node[5].nic.mac1609_4 SentPackets 10
scalar RSUExampleScenario.node[5].nic.mac1609_4 SentAcknowledgements 0
scalar RSUExampleScenario.node[5].nic.mac1609_4 RetriesExceeded 0
scalar RSUExampleScenario.node[5].nic.mac1609_4 SNIRLostPackets 0
scalar RSUExampleScenario.node[5].nic.mac1609_4 RXTXLostPackets 0
scalar RSUExampleScenario.node[5].nic.mac1609_4 TotalLostPackets 0
scalar RSUExampleScenario.node[5].nic.mac1609_4 DroppedPacketsInMac 0
scalar RSUExampleScenario.node[5].nic.mac1609_4 TooLittleTime 0
scalar RSUExampleScenario.node[5].nic.mac1609_4 TimesIntoBackoff 10
scalar RSUExampleScenario.node[5].nic.mac1609_4 SlotsBackoff 15
scalar RSUExampleScenario.node[5].nic.mac1609_4 NumInternalContention 0
scalar RSUExampleScenario.node[5].nic.mac1609_4 totalBusyTime 0.00233
scalar RSUExampleScenario.node[5].nic.mac1609_4 retriesExceeded:count 0
attr recordingmode count
attr source org_car2x_veins_modules_mac_sigRetriesExceeded
scalar RSUExampleScenario.node[5].nic.mac1609_4 sentAcks:count 0
attr recordingmode count
attr source org_car2x_veins_modules_mac_sigSentAck
scalar RSUExampleScenario.node[5].nic.mac1609_4 sentPackets:count 10
attr recordingmode count
attr source org_car2x_veins_modules_mac_sigSentPacket
scalar RSUExampleScenario.node[5].nic.mac1609_4 collisions:count 0
attr recordingmode count
attr source org_car2x_veins_modules_mac_sigCollision
scalar RSUExampleScenario.node[5].nic.mac1609_4 channelBusy:timeavg 0.00023299969526883
attr recordingmode timeavg
attr source org_car2x_veins_modules_mac_sigChannelBusy
par RSUExampleScenario.node[5].nic typename "\"org.car2x.veins.modules.nic.Nic80211p\""
par RSUExampleScenario.node[5].nic connectionManagerName "\"connectionManager\""
par RSUExampleScenario.node[5].veinsmobility typename "\"org.car2x.veins.modules.mobility.traci.TraCIMobility\""
par RSUExampleScenario.node[5].veinsmobility notAffectedByHostState true
par RSUExampleScenario.node[5].veinsmobility x 0
par RSUExampleScenario.node[5].veinsmobility y 0
par RSUExampleScenario.node[5].veinsmobility z 0
par RSUExampleScenario.node[5].veinsmobility xOrientation 1
par RSUExampleScenario.node[5].veinsmobility yOrientation 0
par RSUExampleScenario.node[5].veinsmobility zOrientation 0
par RSUExampleScenario.node[5].veinsmobility hostPositionOffset 0m
attr unit m
par RSUExampleScenario.node[5].veinsmobility setHostSpeed false
par RSUExampleScenario.node[5].veinsmobility accidentCount 0
par RSUExampleScenario.node[5].veinsmobility accidentStart 55.9284s
attr unit s
par RSUExampleScenario.node[5].veinsmobility accidentDuration "uniform(30s, 60s)"
attr unit s
par RSUExampleScenario.node[5].veinsmobility accidentInterval "uniform(30s, 60s)"
attr unit s
scalar RSUExampleScenario.node[5].veinsmobility startTime 6
scalar RSUExampleScenario.node[5].veinsmobility totalTime 10
scalar RSUExampleScenario.node[5].veinsmobility stopTime 16.000013078608
scalar RSUExampleScenario.node[5].veinsmobility minSpeed 3.9682691233371
scalar RSUExampleScenario.node[5].veinsmobility maxSpeed 15.946912009208
scalar RSUExampleScenario.node[5].veinsmobility totalDistance 99.119605948564
scalar RSUExampleScenario.node[5].veinsmobility totalCO2Emission 48.953121398776
par RSUExampleScenario.node[5] typename "\"org.car2x.veins.nodes.Car\""
par RSUExampleScenario.node[5] applType "\"ICDDRVehicle\""
par RSUExampleScenario.node[5] nicType "\"Nic80211p\""
par RSUExampleScenario.node[5] veinsmobilityType "\"org.car2x.veins.modules.mobility.traci.TraCIMobility\""
par RSUExampleScenario.node[6].appl typename "\"ICDDRVehicle\""
par RSUExampleScenario.node[6].appl headerLength 80bit
attr unit bit
par RSUExampleScenario.node[6].appl sendBeacons false
par RSUExampleScenario.node[6].appl beaconLengthBits 256bit
attr unit bit
par RSUExampleScenario.node[6].appl beaconUserPriority 7
par RSUExampleScenario.node[6].appl beaconInterval 1s
attr unit s
par RSUExampleScenario.node[6].appl dataLengthBits 1024bit
attr unit bit
par RSUExampleScenario.node[6].appl dataOnSch false
par RSUExampleScenario.node[6].appl dataUserPriority 7
par RSUExampleScenario.node[6].appl avoidBeaconSynchronization true
par RSUExampleScenario.node[6].appl sendWSA false
par RSUExampleScenario.node[6].appl wsaLengthBits 250bit
attr unit bit
par RSUExampleScenario.node[6].appl wsaInterval 1s
attr unit s
scalar RSUExampleScenario.node[6].appl generatedWSMs 10
scalar RSUExampleScenario.node[6].appl receivedWSMs 0
scalar RSUExampleScenario.node[6].appl generatedBSMs 0
scalar RSUExampleScenario.node[6].appl receivedBSMs 0
scalar RSUExampleScenario.node[6].appl generatedWSAs 0
scalar RSUExampleScenario.node[6].appl receivedWSAs 0
par RSUExampleScenario.node[6].nic.phy80211p typename "\"org.car2x.veins.modules.phy.PhyLayer80211p\""
par RSUExampleScenario.node[6].nic.phy80211p recordStats false
par RSUExampleScenario.node[6].nic.phy80211p usePropagationDelay true
par RSUExampleScenario.node[6].nic.phy80211p noiseFloor -98dBm
attr unit dBm
par RSUExampleScenario.node[6].nic.phy80211p useNoiseFloor true
par RSUExampleScenario.node[6].nic.phy80211p antenna "<Antenna type=\"SampledAntenna1D\" id=\"monopole\">...</Antenna> at C:/Users/Pranitha/OneDrive/Desktop/ICDDR/ICDDR/simulations/\\antenna.xml:35"
par RSUExampleScenario.node[6].nic.phy80211p antennaOffsetX 0m
attr unit m
par RSUExampleScenario.node[6].nic.phy80211p antennaOffsetY 0m
attr unit m
par RSUExampleScenario.node[6].nic.phy80211p antennaOffsetZ 1.895m
attr unit m
par RSUExampleScenario.node[6].nic.phy80211p antennaOffsetYaw 0rad
attr unit rad
par RSUExampleScenario.node[6].nic.phy80211p analogueModels "<root>...</root> at C:/Users/Pranitha/OneDrive/Desktop/ICDDR/ICDDR/simulations/\\config.xml:34"
par RSUExampleScenario.node[6].nic.phy80211p decider "<root>...</root> at C:/Users/Pranitha/OneDrive/Desktop/ICDDR/ICDDR/simulations/\\config.xml:34"
par RSUExampleScenario.node[6].nic.phy80211p minPowerLevel -110dBm
attr unit dBm
par RSUExampleScenario.node[6].nic.phy80211p timeRXToTX 0s
attr unit s
par RSUExampleScenario.node[6].nic.phy80211p timeRXToSleep 0s
attr unit s
par RSUExampleScenario.node[6].nic.phy80211p timeTXToRX 0s
attr unit s
par RSUExampleScenario.node[6].nic.phy80211p timeTXToSleep 0s
attr unit s
par RSUExampleScenario.node[6].nic.phy80211p timeSleepToRX 0s
attr unit s
par RSUExampleScenario.node[6].nic.phy80211p timeSleepToTX 0s
attr unit s
par RSUExampleScenario.node[6].nic.phy80211p initialRadioState 0
par RSUExampleScenario.node[6].nic.phy80211p radioMinAtt 1
par RSUExampleScenario.node[6].nic.phy80211p radioMaxAtt 0
par RSUExampleScenario.node[6].nic.phy80211p nbRadioChannels 1
par RSUExampleScenario.node[6].nic.phy80211p initialRadioChannel 0
par RSUExampleScenario.node[6].nic.phy80211p ccaThreshold -65dBm
attr unit dBm
par RSUExampleScenario.node[6].nic.phy80211p collectCollisionStatistics false
par RSUExampleScenario.node[6].nic.phy80211p allowTxDuringRx false
scalar RSUExampleScenario.node[6].nic.phy80211p busyTime 0
par RSUExampleScenario.node[6].nic.mac1609_4 typename "\"org.car2x.veins.modules.mac.ieee80211p.Mac1609_4\""
par RSUExampleScenario.node[6].nic.mac1609_4 notAffectedByHostState false
par RSUExampleScenario.node[6].nic.mac1609_4 headerLength 0bit
attr unit bit
par RSUExampleScenario.node[6].nic.mac1609_4 address "\"auto\""
par RSUExampleScenario.node[6].nic.mac1609_4 useServiceChannel false
par RSUExampleScenario.node[6].nic.mac1609_4 serviceChannel 1
par RSUExampleScenario.node[6].nic.mac1609_4 bitrate 6000000bps
attr unit bps
par RSUExampleScenario.node[6].nic.mac1609_4 syncOffset 0.0003s
attr unit s
par RSUExampleScenario.node[6].nic.mac1609_4 txPower 20mW
attr unit mW
par RSUExampleScenario.node[6].nic.mac1609_4 queueSize 0
par RSUExampleScenario.node[6].nic.mac1609_4 dot11RTSThreshold 12000bit
attr unit bit
par RSUExampleScenario.node[6].nic.mac1609_4 dot11ShortRetryLimit 7
par RSUExampleScenario.node[6].nic.mac1609_4 dot11LongRetryLimit 4
par RSUExampleScenario.node[6].nic.mac1609_4 ackLength 112bit
attr unit bit
par RSUExampleScenario.node[6].nic.mac1609_4 useAcks false
par RSUExampleScenario.node[6].nic.mac1609_4 frameErrorRate 0
par RSUExampleScenario.node[6].nic.mac1609_4 ackErrorRate 0
scalar RSUExampleScenario.node[6].nic.mac1609_4 ReceivedUnicastPackets 0
scalar RSUExampleScenario.node[6].nic.mac1609_4 ReceivedBroadcasts 0
scalar RSUExampleScenario.node[6].nic.mac1609_4 SentPackets 10
scalar RSUExampleScenario.node[6].nic.mac1609_4 SentAcknowledgements 0
scalar RSUExampleScenario.node[6].nic.mac1609_4 RetriesExceeded 0
scalar RSUExampleScenario.node[6].nic.mac1609_4 SNIRLostPackets 0
scalar RSUExampleScenario.node[6].nic.mac1609_4 RXTXLostPackets 0
scalar RSUExampleScenario.node[6].nic.mac1609_4 TotalLostPackets 0
scalar RSUExampleScenario.node[6].nic.mac1609_4 DroppedPacketsInMac 0
scalar RSUExampleScenario.node[6].nic.mac1609_4 TooLittleTime 0
scalar RSUExampleScenario.node[6].nic.mac1609_4 TimesIntoBackoff 9
scalar RSUExampleScenario.node[6].nic.mac1609_4 SlotsBackoff 5
scalar RSUExampleScenario.node[6].nic.mac1609_4 NumInternalContention 0
scalar RSUExampleScenario.node[6].nic.mac1609_4 totalBusyTime 0.002097
scalar RSUExampleScenario.node[6].nic.mac1609_4 retriesExceeded:count 0
attr recordingmode count
attr source org_car2x_veins_modules_mac_sigRetriesExceeded
scalar RSUExampleScenario.node[6].nic.mac1609_4 sentAcks:count 0
attr recordingmode count
attr source org_car2x_veins_modules_mac_sigSentAck
scalar RSUExampleScenario.node[6].nic.mac1609_4 sentPackets:count 10
attr recordingmode count
attr source org_car2x_veins_modules_mac_sigSentPacket
scalar RSUExampleScenario.node[6].nic.mac1609_4 collisions:count 0
attr recordingmode count
attr source org_car2x_veins_modules_mac_sigCollision
scalar RSUExampleScenario.node[6].nic.mac1609_4 channelBusy:timeavg 0.00023411950511586
attr recordingmode timeavg
attr source org_car2x_veins_modules_mac_sigChannelBusy
par RSUExampleScenario.node[6].nic typename "\"org.car2x.veins.modules.nic.Nic80211p\""
par RSUExampleScenario.node[6].nic connectionManagerName "\"connectionManager\""
par RSUExampleScenario.node[6].veinsmobility typename "\"org.car2x.veins.modules.mobility.traci.TraCIMobility\""
par RSUExampleScenario.node[6].veinsmobility notAffectedByHostState true
par RSUExampleScenario.node[6].veinsmobility x 0
par RSUExampleScenario.node[6].veinsmobility y 0
par RSUExampleScenario.node[6].veinsmobility z 0
par RSUExampleScenario.node[6].veinsmobility xOrientation 1
par RSUExampleScenario.node[6].veinsmobility yOrientation 0
par RSUExampleScenario.node[6].veinsmobility zOrientation 0
par RSUExampleScenario.node[6].veinsmobility hostPositionOffset 0m
attr unit m
par RSUExampleScenario.node[6].veinsmobility setHostSpeed false
par RSUExampleScenario.node[6].veinsmobility accidentCount 0
par RSUExampleScenario.node[6].veinsmobility accidentStart 48.2114s
attr unit s
par RSUExampleScenario.node[6].veinsmobility accidentDuration "uniform(30s, 60s)"
attr unit s
par RSUExampleScenario.node[6].veinsmobility accidentInterval "uniform(30s, 60s)"
attr unit s
scalar RSUExampleScenario.node[6].veinsmobility startTime 7
scalar RSUExampleScenario.node[6].veinsmobility totalTime 9
scalar RSUExampleScenario.node[6].veinsmobility stopTime 16.000013078608
scalar RSUExampleScenario.node[6].veinsmobility minSpeed 3.9799862627399
scalar RSUExampleScenario.node[6].veinsmobility maxSpeed 13.091260321973
scalar RSUExampleScenario.node[6].veinsmobility totalDistance 72.997896914065
scalar RSUExampleScenario.node[6].veinsmobility totalCO2Emission 35.140488294177
par RSUExampleScenario.node[6] typename "\"org.car2x.veins.nodes.Car\""
par RSUExampleScenario.node[6] applType "\"ICDDRVehicle\""
par RSUExampleScenario.node[6] nicType "\"Nic80211p\""
par RSUExampleScenario.node[6] veinsmobilityType "\"org.car2x.veins.modules.mobility.traci.TraCIMobility\""
par RSUExampleScenario.node[7].appl typename "\"ICDDRVehicle\""
par RSUExampleScenario.node[7].appl headerLength 80bit
attr unit bit
par RSUExampleScenario.node[7].appl sendBeacons false
par RSUExampleScenario.node[7].appl beaconLengthBits 256bit
attr unit bit
par RSUExampleScenario.node[7].appl beaconUserPriority 7
par RSUExampleScenario.node[7].appl beaconInterval 1s
attr unit s
par RSUExampleScenario.node[7].appl dataLengthBits 1024bit
attr unit bit
par RSUExampleScenario.node[7].appl dataOnSch false
par RSUExampleScenario.node[7].appl dataUserPriority 7
par RSUExampleScenario.node[7].appl avoidBeaconSynchronization true
par RSUExampleScenario.node[7].appl sendWSA false
par RSUExampleScenario.node[7].appl wsaLengthBits 250bit
attr unit bit
par RSUExampleScenario.node[7].appl wsaInterval 1s
attr unit s
scalar RSUExampleScenario.node[7].appl generatedWSMs 8
scalar RSUExampleScenario.node[7].appl receivedWSMs 0
scalar RSUExampleScenario.node[7].appl generatedBSMs 0
scalar RSUExampleScenario.node[7].appl receivedBSMs 0
scalar RSUExampleScenario.node[7].appl generatedWSAs 0
scalar RSUExampleScenario.node[7].appl receivedWSAs 0
par RSUExampleScenario.node[7].nic.phy80211p typename "\"org.car2x.veins.modules.phy.PhyLayer80211p\""
par RSUExampleScenario.node[7].nic.phy80211p recordStats false
par RSUExampleScenario.node[7].nic.phy80211p usePropagationDelay true
par RSUExampleScenario.node[7].nic.phy80211p noiseFloor -98dBm
attr unit dBm
par RSUExampleScenario.node[7].nic.phy80211p useNoiseFloor true
par RSUExampleScenario.node[7].nic.phy80211p antenna "<Antenna type=\"SampledAntenna1D\" id=\"monopole\">...</Antenna> at C:/Users/Pranitha/OneDrive/Desktop/ICDDR/ICDDR/simulations/\\antenna.xml:35"
par RSUExampleScenario.node[7].nic.phy80211p antennaOffsetX 0m
attr unit m
par RSUExampleScenario.node[7].nic.phy80211p antennaOffsetY 0m
attr unit m
par RSUExampleScenario.node[7].nic.phy80211p antennaOffsetZ 1.895m
attr unit m
par RSUExampleScenario.node[7].nic.phy80211p antennaOffsetYaw 0rad
attr unit rad
par RSUExampleScenario.node[7].nic.phy80211p analogueModels "<root>...</root> at C:/Users/Pranitha/OneDrive/Desktop/ICDDR/ICDDR/simulations/\\config.xml:34"
par RSUExampleScenario.node[7].nic.phy80211p decider "<root>...</root> at C:/Users/Pranitha/OneDrive/Desktop/ICDDR/ICDDR/simulations/\\config.xml:34"
par RSUExampleScenario.node[7].nic.phy80211p minPowerLevel -110dBm
attr unit dBm
par RSUExampleScenario.node[7].nic.phy80211p timeRXToTX 0s
attr unit s
par RSUExampleScenario.node[7].nic.phy80211p timeRXToSleep 0s
attr unit s
par RSUExampleScenario.node[7].nic.phy80211p timeTXToRX 0s
attr unit s
par RSUExampleScenario.node[7].nic.phy80211p timeTXToSleep 0s
attr unit s
par RSUExampleScenario.node[7].nic.phy80211p timeSleepToRX 0s
attr unit s
par RSUExampleScenario.node[7].nic.phy80211p timeSleepToTX 0s
attr unit s
par RSUExampleScenario.node[7].nic.phy80211p initialRadioState 0
par RSUExampleScenario.node[7].nic.phy80211p radioMinAtt 1
par RSUExampleScenario.node[7].nic.phy80211p radioMaxAtt 0
par RSUExampleScenario.node[7].nic.phy80211p nbRadioChannels 1
par RSUExampleScenario.node[7].nic.phy80211p initialRadioChannel 0
par RSUExampleScenario.node[7].nic.phy80211p ccaThreshold -65dBm
attr unit dBm
par RSUExampleScenario.node[7].nic.phy80211p collectCollisionStatistics false
par RSUExampleScenario.node[7].nic.phy80211p allowTxDuringRx false
scalar RSUExampleScenario.node[7].nic.phy80211p busyTime 0
par RSUExampleScenario.node[7].nic.mac1609_4 typename "\"org.car2x.veins.modules.mac.ieee80211p.Mac1609_4\""
par RSUExampleScenario.node[7].nic.mac1609_4 notAffectedByHostState false
par RSUExampleScenario.node[7].nic.mac1609_4 headerLength 0bit
attr unit bit
par RSUExampleScenario.node[7].nic.mac1609_4 address "\"auto\""
par RSUExampleScenario.node[7].nic.mac1609_4 useServiceChannel false
par RSUExampleScenario.node[7].nic.mac1609_4 serviceChannel 1
par RSUExampleScenario.node[7].nic.mac1609_4 bitrate 6000000bps
attr unit bps
par RSUExampleScenario.node[7].nic.mac1609_4 syncOffset 0.0003s
attr unit s
par RSUExampleScenario.node[7].nic.mac1609_4 txPower 20mW
attr unit mW
par RSUExampleScenario.node[7].nic.mac1609_4 queueSize 0
par RSUExampleScenario.node[7].nic.mac1609_4 dot11RTSThreshold 12000bit
attr unit bit
par RSUExampleScenario.node[7].nic.mac1609_4 dot11ShortRetryLimit 7
par RSUExampleScenario.node[7].nic.mac1609_4 dot11LongRetryLimit 4
par RSUExampleScenario.node[7].nic.mac1609_4 ackLength 112bit
attr unit bit
par RSUExampleScenario.node[7].nic.mac1609_4 useAcks false
par RSUExampleScenario.node[7].nic.mac1609_4 frameErrorRate 0
par RSUExampleScenario.node[7].nic.mac1609_4 ackErrorRate 0
scalar RSUExampleScenario.node[7].nic.mac1609_4 ReceivedUnicastPackets 0
scalar RSUExampleScenario.node[7].nic.mac1609_4 ReceivedBroadcasts 0
scalar RSUExampleScenario.node[7].nic.mac1609_4 SentPackets 8
scalar RSUExampleScenario.node[7].nic.mac1609_4 SentAcknowledgements 0
scalar RSUExampleScenario.node[7].nic.mac1609_4 RetriesExceeded 0
scalar RSUExampleScenario.node[7].nic.mac1609_4 SNIRLostPackets 0
scalar RSUExampleScenario.node[7].nic.mac1609_4 RXTXLostPackets 0
scalar RSUExampleScenario.node[7].nic.mac1609_4 TotalLostPackets 0
scalar RSUExampleScenario.node[7].nic.mac1609_4 DroppedPacketsInMac 0
scalar RSUExampleScenario.node[7].nic.mac1609_4 TooLittleTime 0
scalar RSUExampleScenario.node[7].nic.mac1609_4 TimesIntoBackoff 7
scalar RSUExampleScenario.node[7].nic.mac1609_4 SlotsBackoff 11
scalar RSUExampleScenario.node[7].nic.mac1609_4 NumInternalContention 0
scalar RSUExampleScenario.node[7].nic.mac1609_4 totalBusyTime 0.001631
scalar RSUExampleScenario.node[7].nic.mac1609_4 retriesExceeded:count 0
attr recordingmode count
attr source org_car2x_veins_modules_mac_sigRetriesExceeded
scalar RSUExampleScenario.node[7].nic.mac1609_4 sentAcks:count 0
attr recordingmode count
attr source org_car2x_veins_modules_mac_sigSentAck
scalar RSUExampleScenario.node[7].nic.mac1609_4 sentPackets:count 8
attr recordingmode count
attr source org_car2x_veins_modules_mac_sigSentPacket
scalar RSUExampleScenario.node[7].nic.mac1609_4 collisions:count 0
attr recordingmode count
attr source org_car2x_veins_modules_mac_sigCollision
scalar RSUExampleScenario.node[7].nic.mac1609_4 channelBusy:timeavg 0.00023372507874305
attr recordingmode timeavg
attr source org_car2x_veins_modules_mac_sigChannelBusy
par RSUExampleScenario.node[7].nic typename "\"org.car2x.veins.modules.nic.Nic80211p\""
par RSUExampleScenario.node[7].nic connectionManagerName "\"connectionManager\""
par RSUExampleScenario.node[7].veinsmobility typename "\"org.car2x.veins.modules.mobility.traci.TraCIMobility\""
par RSUExampleScenario.node[7].veinsmobility notAffectedByHostState true
par RSUExampleScenario.node[7].veinsmobility x 0
par RSUExampleScenario.node[7].veinsmobility y 0
par RSUExampleScenario.node[7].veinsmobility z 0
par RSUExampleScenario.node[7].veinsmobility xOrientation 1
par RSUExampleScenario.node[7].veinsmobility yOrientation 0
par RSUExampleScenario.node[7].veinsmobility zOrientation 0
par RSUExampleScenario.node[7].veinsmobility hostPositionOffset 0m
attr unit m
par RSUExampleScenario.node[7].veinsmobility setHostSpeed false
par RSUExampleScenario.node[7].veinsmobility accidentCount 0
par RSUExampleScenario.node[7].veinsmobility accidentStart 52.4098s
attr unit s
par RSUExampleScenario.node[7].veinsmobility accidentDuration "uniform(30s, 60s)"
attr unit s
par RSUExampleScenario.node[7].veinsmobility accidentInterval "uniform(30s, 60s)"
attr unit s
scalar RSUExampleScenario.node[7].veinsmobility startTime 9
scalar RSUExampleScenario.node[7].veinsmobility totalTime 7
scalar RSUExampleScenario.node[7].veinsmobility stopTime 16.000013078608
scalar RSUExampleScenario.node[7].veinsmobility minSpeed 3.9939830188786
scalar RSUExampleScenario.node[7].veinsmobility maxSpeed 14.728408329744
scalar RSUExampleScenario.node[7].veinsmobility totalDistance 47.526887907275
scalar RSUExampleScenario.node[7].veinsmobility totalCO2Emission 36.949365922361
par RSUExampleScenario.node[7] typename "\"org.car2x.veins.nodes.Car\""
par RSUExampleScenario.node[7] applType "\"ICDDRVehicle\""
par RSUExampleScenario.node[7] nicType "\"Nic80211p\""
par RSUExampleScenario.node[7] veinsmobilityType "\"org.car2x.veins.modules.mobility.traci.TraCIMobility\""
par RSUExampleScenario.node[8].appl typename "\"ICDDRVehicle\""
par RSUExampleScenario.node[8].appl headerLength 80bit
attr unit bit
par RSUExampleScenario.node[8].appl sendBeacons false
par RSUExampleScenario.node[8].appl beaconLengthBits 256bit
attr unit bit
par RSUExampleScenario.node[8].appl beaconUserPriority 7
par RSUExampleScenario.node[8].appl beaconInterval 1s
attr unit s
par RSUExampleScenario.node[8].appl dataLengthBits 1024bit
attr unit bit
par RSUExampleScenario.node[8].appl dataOnSch false
par RSUExampleScenario.node[8].appl dataUserPriority 7
par RSUExampleScenario.node[8].appl avoidBeaconSynchronization true
par RSUExampleScenario.node[8].appl sendWSA false
par RSUExampleScenario.node[8].appl wsaLengthBits 250bit
attr unit bit
par RSUExampleScenario.node[8].appl wsaInterval 1s
attr unit s
scalar RSUExampleScenario.node[8].appl generatedWSMs 7
scalar RSUExampleScenario.node[8].appl receivedWSMs 0
scalar RSUExampleScenario.node[8].appl generatedBSMs 0
scalar RSUExampleScenario.node[8].appl receivedBSMs 0
scalar RSUExampleScenario.node[8].appl generatedWSAs 0
scalar RSUExampleScenario.node[8].appl receivedWSAs 0
par RSUExampleScenario.node[8].nic.phy80211p typename "\"org.car2x.veins.modules.phy.PhyLayer80211p\""
par RSUExampleScenario.node[8].nic.phy80211p recordStats false
par RSUExampleScenario.node[8].nic.phy80211p usePropagationDelay true
par RSUExampleScenario.node[8].nic.phy80211p noiseFloor -98dBm
attr unit dBm
par RSUExampleScenario.node[8].nic.phy80211p useNoiseFloor true
par RSUExampleScenario.node[8].nic.phy80211p antenna "<Antenna type=\"SampledAntenna1D\" id=\"monopole\">...</Antenna> at C:/Users/Pranitha/OneDrive/Desktop/ICDDR/ICDDR/simulations/\\antenna.xml:35"
par RSUExampleScenario.node[8].nic.phy80211p antennaOffsetX 0m
attr unit m
par RSUExampleScenario.node[8].nic.phy80211p antennaOffsetY 0m
attr unit m
par RSUExampleScenario.node[8].nic.phy80211p antennaOffsetZ 1.895m
attr unit m
par RSUExampleScenario.node[8].nic.phy80211p antennaOffsetYaw 0rad
attr unit rad
par RSUExampleScenario.node[8].nic.phy80211p analogueModels "<root>...</root> at C:/Users/Pranitha/OneDrive/Desktop/ICDDR/ICDDR/simulations/\\config.xml:34"
par RSUExampleScenario.node[8].nic.phy80211p decider "<root>...</root> at C:/Users/Pranitha/OneDrive/Desktop/ICDDR/ICDDR/simulations/\\config.xml:34"
par RSUExampleScenario.node[8].nic.phy80211p minPowerLevel -110dBm
attr unit dBm
par RSUExampleScenario.node[8].nic.phy80211p timeRXToTX 0s
attr unit s
par RSUExampleScenario.node[8].nic.phy80211p timeRXToSleep 0s
attr unit s
par RSUExampleScenario.node[8].nic.phy80211p timeTXToRX 0s
attr unit s
par RSUExampleScenario.node[8].nic.phy80211p timeTXToSleep 0s
attr unit s
par RSUExampleScenario.node[8].nic.phy80211p timeSleepToRX 0s
attr unit s
par RSUExampleScenario.node[8].nic.phy80211p timeSleepToTX 0s
attr unit s
par RSUExampleScenario.node[8].nic.phy80211p initialRadioState 0
par RSUExampleScenario.node[8].nic.phy80211p radioMinAtt 1
par RSUExampleScenario.node[8].nic.phy80211p radioMaxAtt 0
par RSUExampleScenario.node[8].nic.phy80211p nbRadioChannels 1
par RSUExampleScenario.node[8].nic.phy80211p initialRadioChannel 0
par RSUExampleScenario.node[8].nic.phy80211p ccaThreshold -65dBm
attr unit dBm
par RSUExampleScenario.node[8].nic.phy80211p collectCollisionStatistics false
par RSUExampleScenario.node[8].nic.phy80211p allowTxDuringRx false
scalar RSUExampleScenario.node[8].nic.phy80211p busyTime 0
par RSUExampleScenario.node[8].nic.mac1609_4 typename "\"org.car2x.veins.modules.mac.ieee80211p.Mac1609_4\""
par RSUExampleScenario.node[8].nic.mac1609_4 notAffectedByHostState false
par RSUExampleScenario.node[8].nic.mac1609_4 headerLength 0bit
attr unit bit
par RSUExampleScenario.node[8].nic.mac1609_4 address "\"auto\""
par RSUExampleScenario.node[8].nic.mac1609_4 useServiceChannel false
par RSUExampleScenario.node[8].nic.mac1609_4 serviceChannel 1
par RSUExampleScenario.node[8].nic.mac1609_4 bitrate 6000000bps
attr unit bps
par RSUExampleScenario.node[8].nic.mac1609_4 syncOffset 0.0003s
attr unit s
par RSUExampleScenario.node[8].nic.mac1609_4 txPower 20mW
attr unit mW
par RSUExampleScenario.node[8].nic.mac1609_4 queueSize 0
par RSUExampleScenario.node[8].nic.mac1609_4 dot11RTSThreshold 12000bit
attr unit bit
par RSUExampleScenario.node[8].nic.mac1609_4 dot11ShortRetryLimit 7
par RSUExampleScenario.node[8].nic.mac1609_4 dot11LongRetryLimit 4
par RSUExampleScenario.node[8].nic.mac1609_4 ackLength 112bit
attr unit bit
par RSUExampleScenario.node[8].nic.mac1609_4 useAcks false
par RSUExampleScenario.node[8].nic.mac1609_4 frameErrorRate 0
par RSUExampleScenario.node[8].nic.mac1609_4 ackErrorRate 0
scalar RSUExampleScenario.node[8].nic.mac1609_4 ReceivedUnicastPackets 0
scalar RSUExampleScenario.node[8].nic.mac1609_4 ReceivedBroadcasts 0
scalar RSUExampleScenario.node[8].nic.mac1609_4 SentPackets 7
scalar RSUExampleScenario.node[8].nic.mac1609_4 SentAcknowledgements 0
scalar RSUExampleScenario.node[8].nic.mac1609_4 RetriesExceeded 0
scalar RSUExampleScenario.node[8].nic.mac1609_4 SNIRLostPackets 0
scalar RSUExampleScenario.node[8].nic.mac1609_4 RXTXLostPackets 0
scalar RSUExampleScenario.node[8].nic.mac1609_4 TotalLostPackets 0
scalar RSUExampleScenario.node[8].nic.mac1609_4 DroppedPacketsInMac 0
scalar RSUExampleScenario.node[8].nic.mac1609_4 TooLittleTime 0
scalar RSUExampleScenario.node[8].nic.mac1609_4 TimesIntoBackoff 6
scalar RSUExampleScenario.node[8].nic.mac1609_4 SlotsBackoff 9
scalar RSUExampleScenario.node[8].nic.mac1609_4 NumInternalContention 0
scalar RSUExampleScenario.node[8].nic.mac1609_4 totalBusyTime 0.001398
scalar RSUExampleScenario.node[8].nic.mac1609_4 retriesExceeded:count 0
attr recordingmode count
attr source org_car2x_veins_modules_mac_sigRetriesExceeded
scalar RSUExampleScenario.node[8].nic.mac1609_4 sentAcks:count 0
attr recordingmode count
attr source org_car2x_veins_modules_mac_sigSentAck
scalar RSUExampleScenario.node[8].nic.mac1609_4 sentPackets:count 7
attr recordingmode count
attr source org_car2x_veins_modules_mac_sigSentPacket
scalar RSUExampleScenario.node[8].nic.mac1609_4 collisions:count 0
attr recordingmode count
attr source org_car2x_veins_modules_mac_sigCollision
scalar RSUExampleScenario.node[8].nic.mac1609_4 channelBusy:timeavg 0.00023451259015029
attr recordingmode timeavg
attr source org_car2x_veins_modules_mac_sigChannelBusy
par RSUExampleScenario.node[8].nic typename "\"org.car2x.veins.modules.nic.Nic80211p\""
par RSUExampleScenario.node[8].nic connectionManagerName "\"connectionManager\""
par RSUExampleScenario.node[8].veinsmobility typename "\"org.car2x.veins.modules.mobility.traci.TraCIMobility\""
par RSUExampleScenario.node[8].veinsmobility notAffectedByHostState true
par RSUExampleScenario.node[8].veinsmobility x 0
par RSUExampleScenario.node[8].veinsmobility y 0
par RSUExampleScenario.node[8].veinsmobility z 0
par RSUExampleScenario.node[8].veinsmobility xOrientation 1
[...]
attr unit m
par RSUExampleScenario.rsu[69].nic.phy80211p antennaOffsetZ 0m
attr unit m
par RSUExampleScenario.rsu[69].nic.phy80211p antennaOffsetYaw 0rad
attr unit rad
par RSUExampleScenario.rsu[69].nic.phy80211p analogueModels "<root>...</root> at C:/Users/Pranitha/OneDrive/Desktop/ICDDR/ICDDR/simulations/\\config.xml:34"
par RSUExampleScenario.rsu[69].nic.phy80211p decider "<root>...</root> at C:/Users/Pranitha/OneDrive/Desktop/ICDDR/ICDDR/simulations/\\config.xml:34"
par RSUExampleScenario.rsu[69].nic.phy80211p minPowerLevel -110dBm
attr unit dBm
par RSUExampleScenario.rsu[69].nic.phy80211p timeRXToTX 0s
attr unit s
par RSUExampleScenario.rsu[69].nic.phy80211p timeRXToSleep 0s
attr unit s
par RSUExampleScenario.rsu[69].nic.phy80211p timeTXToRX 0s
attr unit s
par RSUExampleScenario.rsu[69].nic.phy80211p timeTXToSleep 0s
attr unit s
par RSUExampleScenario.rsu[69].nic.phy80211p timeSleepToRX 0s
attr unit s
par RSUExampleScenario.rsu[69].nic.phy80211p timeSleepToTX 0s
attr unit s
par RSUExampleScenario.rsu[69].nic.phy80211p initialRadioState 0
par RSUExampleScenario.rsu[69].nic.phy80211p radioMinAtt 1
par RSUExampleScenario.rsu[69].nic.phy80211p radioMaxAtt 0
par RSUExampleScenario.rsu[69].nic.phy80211p nbRadioChannels 1
par RSUExampleScenario.rsu[69].nic.phy80211p initialRadioChannel 0
par RSUExampleScenario.rsu[69].nic.phy80211p ccaThreshold -65dBm
attr unit dBm
par RSUExampleScenario.rsu[69].nic.phy80211p collectCollisionStatistics false
par RSUExampleScenario.rsu[69].nic.phy80211p allowTxDuringRx false
scalar RSUExampleScenario.rsu[69].nic.phy80211p busyTime 0.00018849984591778
par RSUExampleScenario.rsu[69].nic.mac1609_4 typename "\"org.car2x.veins.modules.mac.ieee80211p.Mac1609_4\""
par RSUExampleScenario.rsu[69].nic.mac1609_4 notAffectedByHostState false
par RSUExampleScenario.rsu[69].nic.mac1609_4 headerLength 0bit
attr unit bit
par RSUExampleScenario.rsu[69].nic.mac1609_4 address "\"auto\""
par RSUExampleScenario.rsu[69].nic.mac1609_4 useServiceChannel false
par RSUExampleScenario.rsu[69].nic.mac1609_4 serviceChannel 1
par RSUExampleScenario.rsu[69].nic.mac1609_4 bitrate 6000000bps
attr unit bps
par RSUExampleScenario.rsu[69].nic.mac1609_4 syncOffset 0.0003s
attr unit s
par RSUExampleScenario.rsu[69].nic.mac1609_4 txPower 20mW
attr unit mW
par RSUExampleScenario.rsu[69].nic.mac1609_4 queueSize 0
par RSUExampleScenario.rsu[69].nic.mac1609_4 dot11RTSThreshold 12000bit
attr unit bit
par RSUExampleScenario.rsu[69].nic.mac1609_4 dot11ShortRetryLimit 7
par RSUExampleScenario.rsu[69].nic.mac1609_4 dot11LongRetryLimit 4
par RSUExampleScenario.rsu[69].nic.mac1609_4 ackLength 112bit
attr unit bit
par RSUExampleScenario.rsu[69].nic.mac1609_4 useAcks false
par RSUExampleScenario.rsu[69].nic.mac1609_4 frameErrorRate 0
par RSUExampleScenario.rsu[69].nic.mac1609_4 ackErrorRate 0
scalar RSUExampleScenario.rsu[69].nic.mac1609_4 ReceivedUnicastPackets 0
scalar RSUExampleScenario.rsu[69].nic.mac1609_4 ReceivedBroadcasts 0
scalar RSUExampleScenario.rsu[69].nic.mac1609_4 SentPackets 0
scalar RSUExampleScenario.rsu[69].nic.mac1609_4 SentAcknowledgements 0
scalar RSUExampleScenario.rsu[69].nic.mac1609_4 RetriesExceeded 0
scalar RSUExampleScenario.rsu[69].nic.mac1609_4 SNIRLostPackets 12
scalar RSUExampleScenario.rsu[69].nic.mac1609_4 RXTXLostPackets 0
scalar RSUExampleScenario.rsu[69].nic.mac1609_4 TotalLostPackets 12
scalar RSUExampleScenario.rsu[69].nic.mac1609_4 DroppedPacketsInMac 0
scalar RSUExampleScenario.rsu[69].nic.mac1609_4 TooLittleTime 0
scalar RSUExampleScenario.rsu[69].nic.mac1609_4 TimesIntoBackoff 0
scalar RSUExampleScenario.rsu[69].nic.mac1609_4 SlotsBackoff 0
scalar RSUExampleScenario.rsu[69].nic.mac1609_4 NumInternalContention 0
scalar RSUExampleScenario.rsu[69].nic.mac1609_4 totalBusyTime 0.00232
scalar RSUExampleScenario.rsu[69].nic.mac1609_4 retriesExceeded:count 0
attr recordingmode count
attr source org_car2x_veins_modules_mac_sigRetriesExceeded
scalar RSUExampleScenario.rsu[69].nic.mac1609_4 sentAcks:count 0
attr recordingmode count
attr source org_car2x_veins_modules_mac_sigSentAck
scalar RSUExampleScenario.rsu[69].nic.mac1609_4 sentPackets:count 0
attr recordingmode count
attr source org_car2x_veins_modules_mac_sigSentPacket
scalar RSUExampleScenario.rsu[69].nic.mac1609_4 collisions:count 0
attr recordingmode count
attr source org_car2x_veins_modules_mac_sigCollision
scalar RSUExampleScenario.rsu[69].nic.mac1609_4 channelBusy:timeavg 0.00014522211304356
attr recordingmode timeavg
attr source org_car2x_veins_modules_mac_sigChannelBusy
par RSUExampleScenario.rsu[69].nic typename "\"org.car2x.veins.modules.nic.Nic80211p\""
par RSUExampleScenario.rsu[69].nic connectionManagerName "\"connectionManager\""
par RSUExampleScenario.rsu[69].mobility typename "\"org.car2x.veins.base.modules.BaseMobility\""
par RSUExampleScenario.rsu[69].mobility notAffectedByHostState true
par RSUExampleScenario.rsu[69].mobility x 4800
par RSUExampleScenario.rsu[69].mobility y 5600
par RSUExampleScenario.rsu[69].mobility z 0
par RSUExampleScenario.rsu[69].mobility xOrientation 1
par RSUExampleScenario.rsu[69].mobility yOrientation 0
par RSUExampleScenario.rsu[69].mobility zOrientation 0
par RSUExampleScenario.rsu[69] typename "\"org.car2x.veins.nodes.RSU\""
par RSUExampleScenario.rsu[69] applType "\"ICDDRRSU\""
par RSUExampleScenario.rsu[69] nicType "\"Nic80211p\""
par RSUExampleScenario.rsu[70].appl typename "\"ICDDRRSU\""
par RSUExampleScenario.rsu[70].appl headerLength 80bit
attr unit bit
par RSUExampleScenario.rsu[70].appl sendBeacons false
par RSUExampleScenario.rsu[70].appl beaconLengthBits 256bit
attr unit bit
par RSUExampleScenario.rsu[70].appl beaconUserPriority 7
par RSUExampleScenario.rsu[70].appl beaconInterval 1s
attr unit s
par RSUExampleScenario.rsu[70].appl dataLengthBits 1024bit
attr unit bit
par RSUExampleScenario.rsu[70].appl dataOnSch false
par RSUExampleScenario.rsu[70].appl dataUserPriority 5
par RSUExampleScenario.rsu[70].appl avoidBeaconSynchronization true
par RSUExampleScenario.rsu[70].appl sendWSA false
par RSUExampleScenario.rsu[70].appl wsaLengthBits 250bit
attr unit bit
par RSUExampleScenario.rsu[70].appl wsaInterval 1s
attr unit s
scalar RSUExampleScenario.rsu[70].appl generatedWSMs 0
scalar RSUExampleScenario.rsu[70].appl receivedWSMs 0
scalar RSUExampleScenario.rsu[70].appl generatedBSMs 0
scalar RSUExampleScenario.rsu[70].appl receivedBSMs 0
scalar RSUExampleScenario.rsu[70].appl generatedWSAs 0
scalar RSUExampleScenario.rsu[70].appl receivedWSAs 0
par RSUExampleScenario.rsu[70].nic.phy80211p typename "\"org.car2x.veins.modules.phy.PhyLayer80211p\""
par RSUExampleScenario.rsu[70].nic.phy80211p recordStats false
par RSUExampleScenario.rsu[70].nic.phy80211p usePropagationDelay true
par RSUExampleScenario.rsu[70].nic.phy80211p noiseFloor -98dBm
attr unit dBm
par RSUExampleScenario.rsu[70].nic.phy80211p useNoiseFloor true
par RSUExampleScenario.rsu[70].nic.phy80211p antenna "<Antenna type=\"SampledAntenna1D\" id=\"monopole\">...</Antenna> at C:/Users/Pranitha/OneDrive/Desktop/ICDDR/ICDDR/simulations/\\antenna.xml:35"
par RSUExampleScenario.rsu[70].nic.phy80211p antennaOffsetX 0m
attr unit m
par RSUExampleScenario.rsu[70].nic.phy80211p antennaOffsetY 0m
attr unit m
par RSUExampleScenario.rsu[70].nic.phy80211p antennaOffsetZ 0m
attr unit m
par RSUExampleScenario.rsu[70].nic.phy80211p antennaOffsetYaw 0rad
attr unit rad
par RSUExampleScenario.rsu[70].nic.phy80211p analogueModels "<root>...</root> at C:/Users/Pranitha/OneDrive/Desktop/ICDDR/ICDDR/simulations/\\config.xml:34"
par RSUExampleScenario.rsu[70].nic.phy80211p decider "<root>...</root> at C:/Users/Pranitha/OneDrive/Desktop/ICDDR/ICDDR/simulations/\\config.xml:34"
par RSUExampleScenario.rsu[70].nic.phy80211p minPowerLevel -110dBm
attr unit dBm
par RSUExampleScenario.rsu[70].nic.phy80211p timeRXToTX 0s
attr unit s
par RSUExampleScenario.rsu[70].nic.phy80211p timeRXToSleep 0s
attr unit s
par RSUExampleScenario.rsu[70].nic.phy80211p timeTXToRX 0s
attr unit s
par RSUExampleScenario.rsu[70].nic.phy80211p timeTXToSleep 0s
attr unit s
par RSUExampleScenario.rsu[70].nic.phy80211p timeSleepToRX 0s
attr unit s
par RSUExampleScenario.rsu[70].nic.phy80211p timeSleepToTX 0s
attr unit s
par RSUExampleScenario.rsu[70].nic.phy80211p initialRadioState 0
par RSUExampleScenario.rsu[70].nic.phy80211p radioMinAtt 1
par RSUExampleScenario.rsu[70].nic.phy80211p radioMaxAtt 0
par RSUExampleScenario.rsu[70].nic.phy80211p nbRadioChannels 1
par RSUExampleScenario.rsu[70].nic.phy80211p initialRadioChannel 0
par RSUExampleScenario.rsu[70].nic.phy80211p ccaThreshold -65dBm
attr unit dBm
par RSUExampleScenario.rsu[70].nic.phy80211p collectCollisionStatistics false
par RSUExampleScenario.rsu[70].nic.phy80211p allowTxDuringRx false
scalar RSUExampleScenario.rsu[70].nic.phy80211p busyTime 0.00014499988147521
par RSUExampleScenario.rsu[70].nic.mac1609_4 typename "\"org.car2x.veins.modules.mac.ieee80211p.Mac1609_4\""
par RSUExampleScenario.rsu[70].nic.mac1609_4 notAffectedByHostState false
par RSUExampleScenario.rsu[70].nic.mac1609_4 headerLength 0bit
attr unit bit
par RSUExampleScenario.rsu[70].nic.mac1609_4 address "\"auto\""
par RSUExampleScenario.rsu[70].nic.mac1609_4 useServiceChannel false
par RSUExampleScenario.rsu[70].nic.mac1609_4 serviceChannel 1
par RSUExampleScenario.rsu[70].nic.mac1609_4 bitrate 6000000bps
attr unit bps
par RSUExampleScenario.rsu[70].nic.mac1609_4 syncOffset 0.0003s
attr unit s
par RSUExampleScenario.rsu[70].nic.mac1609_4 txPower 20mW
attr unit mW
par RSUExampleScenario.rsu[70].nic.mac1609_4 queueSize 0
par RSUExampleScenario.rsu[70].nic.mac1609_4 dot11RTSThreshold 12000bit
attr unit bit
par RSUExampleScenario.rsu[70].nic.mac1609_4 dot11ShortRetryLimit 7
par RSUExampleScenario.rsu[70].nic.mac1609_4 dot11LongRetryLimit 4
par RSUExampleScenario.rsu[70].nic.mac1609_4 ackLength 112bit
attr unit bit
par RSUExampleScenario.rsu[70].nic.mac1609_4 useAcks false
par RSUExampleScenario.rsu[70].nic.mac1609_4 frameErrorRate 0
par RSUExampleScenario.rsu[70].nic.mac1609_4 ackErrorRate 0
scalar RSUExampleScenario.rsu[70].nic.mac1609_4 ReceivedUnicastPackets 0
scalar RSUExampleScenario.rsu[70].nic.mac1609_4 ReceivedBroadcasts 0
scalar RSUExampleScenario.rsu[70].nic.mac1609_4 SentPackets 0
scalar RSUExampleScenario.rsu[70].nic.mac1609_4 SentAcknowledgements 0
scalar RSUExampleScenario.rsu[70].nic.mac1609_4 RetriesExceeded 0
scalar RSUExampleScenario.rsu[70].nic.mac1609_4 SNIRLostPackets 10
scalar RSUExampleScenario.rsu[70].nic.mac1609_4 RXTXLostPackets 0
scalar RSUExampleScenario.rsu[70].nic.mac1609_4 TotalLostPackets 10
scalar RSUExampleScenario.rsu[70].nic.mac1609_4 DroppedPacketsInMac 0
scalar RSUExampleScenario.rsu[70].nic.mac1609_4 TooLittleTime 0
scalar RSUExampleScenario.rsu[70].nic.mac1609_4 TimesIntoBackoff 0
scalar RSUExampleScenario.rsu[70].nic.mac1609_4 SlotsBackoff 0
scalar RSUExampleScenario.rsu[70].nic.mac1609_4 NumInternalContention 0
scalar RSUExampleScenario.rsu[70].nic.mac1609_4 totalBusyTime 0.00232
scalar RSUExampleScenario.rsu[70].nic.mac1609_4 retriesExceeded:count 0
attr recordingmode count
attr source org_car2x_veins_modules_mac_sigRetriesExceeded
scalar RSUExampleScenario.rsu[70].nic.mac1609_4 sentAcks:count 0
attr recordingmode count
attr source org_car2x_veins_modules_mac_sigSentAck
scalar RSUExampleScenario.rsu[70].nic.mac1609_4 sentPackets:count 0
attr recordingmode count
attr source org_car2x_veins_modules_mac_sigSentPacket
scalar RSUExampleScenario.rsu[70].nic.mac1609_4 collisions:count 0
attr recordingmode count
attr source org_car2x_veins_modules_mac_sigCollision
scalar RSUExampleScenario.rsu[70].nic.mac1609_4 channelBusy:timeavg 0.00014499988147521
attr recordingmode timeavg
attr source org_car2x_veins_modules_mac_sigChannelBusy
par RSUExampleScenario.rsu[70].nic typename "\"org.car2x.veins.modules.nic.Nic80211p\""
par RSUExampleScenario.rsu[70].nic connectionManagerName "\"connectionManager\""
par RSUExampleScenario.rsu[70].mobility typename "\"org.car2x.veins.base.modules.BaseMobility\""
par RSUExampleScenario.rsu[70].mobility notAffectedByHostState true
par RSUExampleScenario.rsu[70].mobility x 5600
par RSUExampleScenario.rsu[70].mobility y 5600
par RSUExampleScenario.rsu[70].mobility z 0
par RSUExampleScenario.rsu[70].mobility xOrientation 1
par RSUExampleScenario.rsu[70].mobility yOrientation 0
par RSUExampleScenario.rsu[70].mobility zOrientation 0
par RSUExampleScenario.rsu[70] typename "\"org.car2x.veins.nodes.RSU\""
par RSUExampleScenario.rsu[70] applType "\"ICDDRRSU\""
par RSUExampleScenario.rsu[70] nicType "\"Nic80211p\""
par RSUExampleScenario.rsu[71].appl typename "\"ICDDRRSU\""
par RSUExampleScenario.rsu[71].appl headerLength 80bit
attr unit bit
par RSUExampleScenario.rsu[71].appl sendBeacons false
par RSUExampleScenario.rsu[71].appl beaconLengthBits 256bit
attr unit bit
par RSUExampleScenario.rsu[71].appl beaconUserPriority 7
par RSUExampleScenario.rsu[71].appl beaconInterval 1s
attr unit s
par RSUExampleScenario.rsu[71].appl dataLengthBits 1024bit
attr unit bit
par RSUExampleScenario.rsu[71].appl dataOnSch false
par RSUExampleScenario.rsu[71].appl dataUserPriority 5
par RSUExampleScenario.rsu[71].appl avoidBeaconSynchronization true
par RSUExampleScenario.rsu[71].appl sendWSA false
par RSUExampleScenario.rsu[71].appl wsaLengthBits 250bit
attr unit bit
par RSUExampleScenario.rsu[71].appl wsaInterval 1s
attr unit s
scalar RSUExampleScenario.rsu[71].appl generatedWSMs 0
scalar RSUExampleScenario.rsu[71].appl receivedWSMs 0
scalar RSUExampleScenario.rsu[71].appl generatedBSMs 0
scalar RSUExampleScenario.rsu[71].appl receivedBSMs 0
scalar RSUExampleScenario.rsu[71].appl generatedWSAs 0
scalar RSUExampleScenario.rsu[71].appl receivedWSAs 0
par RSUExampleScenario.rsu[71].nic.phy80211p typename "\"org.car2x.veins.modules.phy.PhyLayer80211p\""
par RSUExampleScenario.rsu[71].nic.phy80211p recordStats false
par RSUExampleScenario.rsu[71].nic.phy80211p usePropagationDelay true
par RSUExampleScenario.rsu[71].nic.phy80211p noiseFloor -98dBm
attr unit dBm
par RSUExampleScenario.rsu[71].nic.phy80211p useNoiseFloor true
par RSUExampleScenario.rsu[71].nic.phy80211p antenna "<Antenna type=\"SampledAntenna1D\" id=\"monopole\">...</Antenna> at C:/Users/Pranitha/OneDrive/Desktop/ICDDR/ICDDR/simulations/\\antenna.xml:35"
par RSUExampleScenario.rsu[71].nic.phy80211p antennaOffsetX 0m
attr unit m
par RSUExampleScenario.rsu[71].nic.phy80211p antennaOffsetY 0m
attr unit m
par RSUExampleScenario.rsu[71].nic.phy80211p antennaOffsetZ 0m
attr unit m
par RSUExampleScenario.rsu[71].nic.phy80211p antennaOffsetYaw 0rad
attr unit rad
par RSUExampleScenario.rsu[71].nic.phy80211p analogueModels "<root>...</root> at C:/Users/Pranitha/OneDrive/Desktop/ICDDR/ICDDR/simulations/\\config.xml:34"
par RSUExampleScenario.rsu[71].nic.phy80211p decider "<root>...</root> at C:/Users/Pranitha/OneDrive/Desktop/ICDDR/ICDDR/simulations/\\config.xml:34"
par RSUExampleScenario.rsu[71].nic.phy80211p minPowerLevel -110dBm
attr unit dBm
par RSUExampleScenario.rsu[71].nic.phy80211p timeRXToTX 0s
attr unit s
par RSUExampleScenario.rsu[71].nic.phy80211p timeRXToSleep 0s
attr unit s
par RSUExampleScenario.rsu[71].nic.phy80211p timeTXToRX 0s
attr unit s
par RSUExampleScenario.rsu[71].nic.phy80211p timeTXToSleep 0s
attr unit s
par RSUExampleScenario.rsu[71].nic.phy80211p timeSleepToRX 0s
attr unit s
par RSUExampleScenario.rsu[71].nic.phy80211p timeSleepToTX 0s
attr unit s
par RSUExampleScenario.rsu[71].nic.phy80211p initialRadioState 0
par RSUExampleScenario.rsu[71].nic.phy80211p radioMinAtt 1
par RSUExampleScenario.rsu[71].nic.phy80211p radioMaxAtt 0
par RSUExampleScenario.rsu[71].nic.phy80211p nbRadioChannels 1
par RSUExampleScenario.rsu[71].nic.phy80211p initialRadioChannel 0
par RSUExampleScenario.rsu[71].nic.phy80211p ccaThreshold -65dBm
attr unit dBm
par RSUExampleScenario.rsu[71].nic.phy80211p collectCollisionStatistics false
par RSUExampleScenario.rsu[71].nic.phy80211p allowTxDuringRx false
scalar RSUExampleScenario.rsu[71].nic.phy80211p busyTime 0.00014499988147521
par RSUExampleScenario.rsu[71].nic.mac1609_4 typename "\"org.car2x.veins.modules.mac.ieee80211p.Mac1609_4\""
par RSUExampleScenario.rsu[71].nic.mac1609_4 notAffectedByHostState false
par RSUExampleScenario.rsu[71].nic.mac1609_4 headerLength 0bit
attr unit bit
par RSUExampleScenario.rsu[71].nic.mac1609_4 address "\"auto\""
par RSUExampleScenario.rsu[71].nic.mac1609_4 useServiceChannel false
par RSUExampleScenario.rsu[71].nic.mac1609_4 serviceChannel 1
par RSUExampleScenario.rsu[71].nic.mac1609_4 bitrate 6000000bps
attr unit bps
par RSUExampleScenario.rsu[71].nic.mac1609_4 syncOffset 0.0003s
attr unit s
par RSUExampleScenario.rsu[71].nic.mac1609_4 txPower 20mW
attr unit mW
par RSUExampleScenario.rsu[71].nic.mac1609_4 queueSize 0
par RSUExampleScenario.rsu[71].nic.mac1609_4 dot11RTSThreshold 12000bit
attr unit bit
par RSUExampleScenario.rsu[71].nic.mac1609_4 dot11ShortRetryLimit 7
par RSUExampleScenario.rsu[71].nic.mac1609_4 dot11LongRetryLimit 4
par RSUExampleScenario.rsu[71].nic.mac1609_4 ackLength 112bit
attr unit bit
par RSUExampleScenario.rsu[71].nic.mac1609_4 useAcks false
par RSUExampleScenario.rsu[71].nic.mac1609_4 frameErrorRate 0
par RSUExampleScenario.rsu[71].nic.mac1609_4 ackErrorRate 0
scalar RSUExampleScenario.rsu[71].nic.mac1609_4 ReceivedUnicastPackets 0
scalar RSUExampleScenario.rsu[71].nic.mac1609_4 ReceivedBroadcasts 0
scalar RSUExampleScenario.rsu[71].nic.mac1609_4 SentPackets 0
scalar RSUExampleScenario.rsu[71].nic.mac1609_4 SentAcknowledgements 0
scalar RSUExampleScenario.rsu[71].nic.mac1609_4 RetriesExceeded 0
scalar RSUExampleScenario.rsu[71].nic.mac1609_4 SNIRLostPackets 10
scalar RSUExampleScenario.rsu[71].nic.mac1609_4 RXTXLostPackets 0
scalar RSUExampleScenario.rsu[71].nic.mac1609_4 TotalLostPackets 10
scalar RSUExampleScenario.rsu[71].nic.mac1609_4 DroppedPacketsInMac 0
scalar RSUExampleScenario.rsu[71].nic.mac1609_4 TooLittleTime 0
scalar RSUExampleScenario.rsu[71].nic.mac1609_4 TimesIntoBackoff 0
scalar RSUExampleScenario.rsu[71].nic.mac1609_4 SlotsBackoff 0
scalar RSUExampleScenario.rsu[71].nic.mac1609_4 NumInternalContention 0
scalar RSUExampleScenario.rsu[71].nic.mac1609_4 totalBusyTime 0.00232
scalar RSUExampleScenario.rsu[71].nic.mac1609_4 retriesExceeded:count 0
attr recordingmode count
attr source org_car2x_veins_modules_mac_sigRetriesExceeded
scalar RSUExampleScenario.rsu[71].nic.mac1609_4 sentAcks:count 0
attr recordingmode count
attr source org_car2x_veins_modules_mac_sigSentAck
scalar RSUExampleScenario.rsu[71].nic.mac1609_4 sentPackets:count 0
attr recordingmode count
attr source org_car2x_veins_modules_mac_sigSentPacket
scalar RSUExampleScenario.rsu[71].nic.mac1609_4 collisions:count 0
attr recordingmode count
attr source org_car2x_veins_modules_mac_sigCollision
scalar RSUExampleScenario.rsu[71].nic.mac1609_4 channelBusy:timeavg 0.00014499988147521
attr recordingmode timeavg
attr source org_car2x_veins_modules_mac_sigChannelBusy
par RSUExampleScenario.rsu[71].nic typename "\"org.car2x.veins.modules.nic.Nic80211p\""
par RSUExampleScenario.rsu[71].nic connectionManagerName "\"connectionManager\""
par RSUExampleScenario.rsu[71].mobility typename "\"org.car2x.veins.base.modules.BaseMobility\""
par RSUExampleScenario.rsu[71].mobility notAffectedByHostState true
par RSUExampleScenario.rsu[71].mobility x 6400
par RSUExampleScenario.rsu[71].mobility y 5600
par RSUExampleScenario.rsu[71].mobility z 0
par RSUExampleScenario.rsu[71].mobility xOrientation 1
par RSUExampleScenario.rsu[71].mobility yOrientation 0
par RSUExampleScenario.rsu[71].mobility zOrientation 0
par RSUExampleScenario.rsu[71] typename "\"org.car2x.veins.nodes.RSU\""
par RSUExampleScenario.rsu[71] applType "\"ICDDRRSU\""
par RSUExampleScenario.rsu[71] nicType "\"Nic80211p\""
par RSUExampleScenario typename "\"RSUExampleScenario\""
par RSUExampleScenario playgroundSizeX 7000m
attr unit m
par RSUExampleScenario playgroundSizeY 5700m
attr unit m
par RSUExampleScenario playgroundSizeZ 50m
attr unit m

