version 3
run Default-0-20260214-11:34:26-9892
attr configname Default
attr datetime 20260214-11:34:26
attr datetimef 20260214-113426
attr experiment Default
attr inifile omnetpp.ini
attr iterationvars ""
attr iterationvarsd ""
attr iterationvarsf ""
attr measurement ""
attr network RSUExampleScenario
attr processid 9892
attr repetition 0
attr replication #0
attr resultdir results
attr runnumber 0
attr seedset 0
config image-path ../../../../../Downloads/veins-5.3.1/veins-veins-5.3.1/images
config cmdenv-express-mode true
config cmdenv-autoflush true
config cmdenv-status-frequency 1s
config **.cmdenv-log-level info
config image-path ../../images
config network RSUExampleScenario
config debug-on-errors true
config print-undisposed true
config sim-time-limit 200s
config **.scalar-recording true
config **.vector-recording true
config *.playgroundSizeX 2500m
config *.playgroundSizeY 2500m
config *.playgroundSizeZ 50m
config *.annotations.draw true
config *.obstacles.obstacles "xmldoc(\"config.xml\", \"//AnalogueModel[@type='SimpleObstacleShadowing']/obstacles\")"
config *.manager.updateInterval 1s
config *.manager.host "\"localhost\""
config *.manager.port 9999
config *.manager.autoShutdown true
config *.manager.launchConfig "xmldoc(\"erlangen.launchd.xml\")"
config *.tls[*].mobility.x 0
config *.tls[*].mobility.y 0
config *.tls[*].mobility.z 3
config *.tls[*].applType "\"org.car2x.veins.modules.application.traci.TraCIDemoTrafficLightApp\""
config *.tls[*].logicType "\"org.car2x.veins.modules.world.traci.trafficLight.logics.TraCITrafficLightSimpleLogic\""
config *.rsu[0].mobility.x 2000
config *.rsu[0].mobility.y 2000
config *.rsu[0].mobility.z 3
config *.rsu[*].applType "\"FCRRSU\""
config *.rsu[*].appl.headerLength "80 bit"
config *.rsu[*].appl.sendBeacons false
config *.rsu[*].appl.dataOnSch false
config *.rsu[*].appl.beaconInterval 1s
config *.rsu[*].appl.beaconUserPriority 7
config *.rsu[*].appl.dataUserPriority 5
config *.rsu[*].nic.phy80211p.antennaOffsetZ "0 m"
config *.connectionManager.sendDirect true
config *.connectionManager.maxInterfDist 2600m
config *.connectionManager.drawMaxIntfDist false
config *.**.nic.mac1609_4.useServiceChannel false
config *.**.nic.mac1609_4.txPower 20mW
config *.**.nic.mac1609_4.bitrate 6Mbps
config *.**.nic.phy80211p.minPowerLevel -110dBm
config *.**.nic.phy80211p.useNoiseFloor true
config *.**.nic.phy80211p.noiseFloor -98dBm
config *.**.nic.phy80211p.decider "xmldoc(\"config.xml\")"
config *.**.nic.phy80211p.analogueModels "xmldoc(\"config.xml\")"
config *.**.nic.phy80211p.usePropagationDelay true
config *.**.nic.phy80211p.antenna "xmldoc(\"antenna.xml\", \"/root/Antenna[@id='monopole']\")"
config *.node[*].nic.phy80211p.antennaOffsetY "0 m"
config *.node[*].nic.phy80211p.antennaOffsetZ "1.895 m"
config *.node[*].applType "\"FCRVehicle\""
config *.node[*].appl.headerLength "80 bit"
config *.node[*].appl.sendBeacons false
config *.node[*].appl.dataOnSch false
config *.node[*].appl.beaconInterval 1s
config *.node[*].veinsmobility.x 0
config *.node[*].veinsmobility.y 0
config *.node[*].veinsmobility.z 0
config *.node[*].veinsmobility.setHostSpeed false
config *.node[*0].veinsmobility.accidentCount 1
config *.node[*0].veinsmobility.accidentStart 73s
config *.node[*0].veinsmobility.accidentDuration 50s

vector 0 RSUExampleScenario.rsu[0].nic.phy80211p RadioState ETV
vector 1 RSUExampleScenario.rsu[0].nic.phy80211p RadioChannel ETV
vector 2 RSUExampleScenario.node[0].nic.phy80211p RadioState ETV
vector 3 RSUExampleScenario.node[0].nic.phy80211p RadioChannel ETV
vector 4 RSUExampleScenario.manager posx ETV
vector 5 RSUExampleScenario.manager posy ETV
vector 6 RSUExampleScenario.manager speed ETV
vector 7 RSUExampleScenario.manager acceleration ETV
vector 8 RSUExampleScenario.manager co2emission ETV
vector 9 RSUExampleScenario.node[1].nic.phy80211p RadioState ETV
vector 10 RSUExampleScenario.node[1].nic.phy80211p RadioChannel ETV
vector 11 RSUExampleScenario.manager posx ETV
vector 12 RSUExampleScenario.manager posy ETV
vector 13 RSUExampleScenario.manager speed ETV
vector 14 RSUExampleScenario.manager acceleration ETV
vector 15 RSUExampleScenario.manager co2emission ETV
vector 16 RSUExampleScenario.node[2].nic.phy80211p RadioState ETV
vector 17 RSUExampleScenario.node[2].nic.phy80211p RadioChannel ETV
vector 18 RSUExampleScenario.manager posx ETV
vector 19 RSUExampleScenario.manager posy ETV
vector 20 RSUExampleScenario.manager speed ETV
vector 21 RSUExampleScenario.manager acceleration ETV
vector 22 RSUExampleScenario.manager co2emission ETV
vector 23 RSUExampleScenario.node[3].nic.phy80211p RadioState ETV
vector 24 RSUExampleScenario.node[3].nic.phy80211p RadioChannel ETV
vector 25 RSUExampleScenario.manager posx ETV
vector 26 RSUExampleScenario.manager posy ETV
vector 27 RSUExampleScenario.manager speed ETV
vector 28 RSUExampleScenario.manager acceleration ETV
vector 29 RSUExampleScenario.manager co2emission ETV
vector 30 RSUExampleScenario.node[4].nic.phy80211p RadioState ETV
vector 31 RSUExampleScenario.node[4].nic.phy80211p RadioChannel ETV
vector 32 RSUExampleScenario.manager posx ETV
vector 33 RSUExampleScenario.manager posy ETV
vector 34 RSUExampleScenario.manager speed ETV
vector 35 RSUExampleScenario.manager acceleration ETV
vector 36 RSUExampleScenario.manager co2emission ETV
vector 37 RSUExampleScenario.node[5].nic.phy80211p RadioState ETV
vector 38 RSUExampleScenario.node[5].nic.phy80211p RadioChannel ETV
vector 39 RSUExampleScenario.manager posx ETV
vector 40 RSUExampleScenario.manager posy ETV
vector 41 RSUExampleScenario.manager speed ETV
vector 42 RSUExampleScenario.manager acceleration ETV
vector 43 RSUExampleScenario.manager co2emission ETV
vector 44 RSUExampleScenario.node[6].nic.phy80211p RadioState ETV
vector 45 RSUExampleScenario.node[6].nic.phy80211p RadioChannel ETV
vector 46 RSUExampleScenario.manager posx ETV
vector 47 RSUExampleScenario.manager posy ETV
vector 48 RSUExampleScenario.manager speed ETV
vector 49 RSUExampleScenario.manager acceleration ETV
vector 50 RSUExampleScenario.manager co2emission ETV
vector 51 RSUExampleScenario.node[7].nic.phy80211p RadioState ETV
vector 52 RSUExampleScenario.node[7].nic.phy80211p RadioChannel ETV
vector 53 RSUExampleScenario.manager posx ETV
vector 54 RSUExampleScenario.manager posy ETV
vector 55 RSUExampleScenario.manager speed ETV
vector 56 RSUExampleScenario.manager acceleration ETV
vector 57 RSUExampleScenario.manager co2emission ETV
vector 58 RSUExampleScenario.node[8].nic.phy80211p RadioState ETV
vector 59 RSUExampleScenario.node[8].nic.phy80211p RadioChannel ETV
vector 60 RSUExampleScenario.manager posx ETV
vector 61 RSUExampleScenario.manager posy ETV
vector 62 RSUExampleScenario.manager speed ETV
vector 63 RSUExampleScenario.manager acceleration ETV
vector 64 RSUExampleScenario.manager co2emission ETV
vector 65 RSUExampleScenario.node[9].nic.phy80211p RadioState ETV
vector 66 RSUExampleScenario.node[9].nic.phy80211p RadioChannel ETV
vector 67 RSUExampleScenario.manager posx ETV
vector 68 RSUExampleScenario.manager posy ETV
vector 69 RSUExampleScenario.manager speed ETV
vector 70 RSUExampleScenario.manager acceleration ETV
vector 71 RSUExampleScenario.manager co2emission ETV
vector 72 RSUExampleScenario.node[10].nic.phy80211p RadioState ETV
vector 73 RSUExampleScenario.node[10].nic.phy80211p RadioChannel ETV
vector 74 RSUExampleScenario.manager posx ETV
vector 75 RSUExampleScenario.manager posy ETV
vector 76 RSUExampleScenario.manager speed ETV
vector 77 RSUExampleScenario.manager acceleration ETV
vector 78 RSUExampleScenario.manager co2emission ETV
vector 79 RSUExampleScenario.node[11].nic.phy80211p RadioState ETV
vector 80 RSUExampleScenario.node[11].nic.phy80211p RadioChannel ETV
vector 81 RSUExampleScenario.manager posx ETV
vector 82 RSUExampleScenario.manager posy ETV
vector 83 RSUExampleScenario.manager speed ETV
vector 84 RSUExampleScenario.manager acceleration ETV
vector 85 RSUExampleScenario.manager co2emission ETV
vector 86 RSUExampleScenario.node[12].nic.phy80211p RadioState ETV
vector 87 RSUExampleScenario.node[12].nic.phy80211p RadioChannel ETV
vector 88 RSUExampleScenario.manager posx ETV
vector 89 RSUExampleScenario.manager posy ETV
vector 90 RSUExampleScenario.manager speed ETV
vector 91 RSUExampleScenario.manager acceleration ETV
vector 92 RSUExampleScenario.manager co2emission ETV
vector 93 RSUExampleScenario.node[13].nic.phy80211p RadioState ETV
vector 94 RSUExampleScenario.node[13].nic.phy80211p RadioChannel ETV
vector 95 RSUExampleScenario.manager posx ETV
vector 96 RSUExampleScenario.manager posy ETV
vector 97 RSUExampleScenario.manager speed ETV
vector 98 RSUExampleScenario.manager acceleration ETV
vector 99 RSUExampleScenario.manager co2emission ETV
vector 100 RSUExampleScenario.node[14].nic.phy80211p RadioState ETV
vector 101 RSUExampleScenario.node[14].nic.phy80211p RadioChannel ETV
vector 102 RSUExampleScenario.manager posx ETV
vector 103 RSUExampleScenario.manager posy ETV
vector 104 RSUExampleScenario.manager speed ETV
vector 105 RSUExampleScenario.manager acceleration ETV
vector 106 RSUExampleScenario.manager co2emission ETV
vector 107 RSUExampleScenario.node[15].nic.phy80211p RadioState ETV
vector 108 RSUExampleScenario.node[15].nic.phy80211p RadioChannel ETV
vector 109 RSUExampleScenario.manager posx ETV
vector 110 RSUExampleScenario.manager posy ETV
vector 111 RSUExampleScenario.manager speed ETV
vector 112 RSUExampleScenario.manager acceleration ETV
vector 113 RSUExampleScenario.manager co2emission ETV
vector 114 RSUExampleScenario.node[16].nic.phy80211p RadioState ETV
vector 115 RSUExampleScenario.node[16].nic.phy80211p RadioChannel ETV
vector 116 RSUExampleScenario.manager posx ETV
vector 117 RSUExampleScenario.manager posy ETV
vector 118 RSUExampleScenario.manager speed ETV
vector 119 RSUExampleScenario.manager acceleration ETV
vector 120 RSUExampleScenario.manager co2emission ETV
vector 121 RSUExampleScenario.node[17].nic.phy80211p RadioState ETV
vector 122 RSUExampleScenario.node[17].nic.phy80211p RadioChannel ETV
vector 123 RSUExampleScenario.manager posx ETV
vector 124 RSUExampleScenario.manager posy ETV
vector 125 RSUExampleScenario.manager speed ETV
vector 126 RSUExampleScenario.manager acceleration ETV
vector 127 RSUExampleScenario.manager co2emission ETV
vector 128 RSUExampleScenario.node[18].nic.phy80211p RadioState ETV
vector 129 RSUExampleScenario.node[18].nic.phy80211p RadioChannel ETV
vector 130 RSUExampleScenario.manager posx ETV
vector 131 RSUExampleScenario.manager posy ETV
vector 132 RSUExampleScenario.manager speed ETV
vector 133 RSUExampleScenario.manager acceleration ETV
vector 134 RSUExampleScenario.manager co2emission ETV
vector 135 RSUExampleScenario.node[19].nic.phy80211p RadioState ETV
vector 136 RSUExampleScenario.node[19].nic.phy80211p RadioChannel ETV
vector 137 RSUExampleScenario.manager posx ETV
vector 138 RSUExampleScenario.manager posy ETV
vector 139 RSUExampleScenario.manager speed ETV
vector 140 RSUExampleScenario.manager acceleration ETV
vector 141 RSUExampleScenario.manager co2emission ETV
vector 142 RSUExampleScenario.node[20].nic.phy80211p RadioState ETV
vector 143 RSUExampleScenario.node[20].nic.phy80211p RadioChannel ETV
vector 144 RSUExampleScenario.manager posx ETV
vector 145 RSUExampleScenario.manager posy ETV
vector 146 RSUExampleScenario.manager speed ETV
vector 147 RSUExampleScenario.manager acceleration ETV
vector 148 RSUExampleScenario.manager co2emission ETV
vector 149 RSUExampleScenario.node[21].nic.phy80211p RadioState ETV
vector 150 RSUExampleScenario.node[21].nic.phy80211p RadioChannel ETV
vector 151 RSUExampleScenario.manager posx ETV
vector 152 RSUExampleScenario.manager posy ETV
vector 153 RSUExampleScenario.manager speed ETV
vector 154 RSUExampleScenario.manager acceleration ETV
vector 155 RSUExampleScenario.manager co2emission ETV
vector 156 RSUExampleScenario.node[22].nic.phy80211p RadioState ETV
vector 157 RSUExampleScenario.node[22].nic.phy80211p RadioChannel ETV
vector 158 RSUExampleScenario.manager posx ETV
vector 159 RSUExampleScenario.manager posy ETV
vector 160 RSUExampleScenario.manager speed ETV
vector 161 RSUExampleScenario.manager acceleration ETV
vector 162 RSUExampleScenario.manager co2emission ETV
vector 163 RSUExampleScenario.node[23].nic.phy80211p RadioState ETV
vector 164 RSUExampleScenario.node[23].nic.phy80211p RadioChannel ETV
vector 165 RSUExampleScenario.manager posx ETV
vector 166 RSUExampleScenario.manager posy ETV
vector 167 RSUExampleScenario.manager speed ETV
vector 168 RSUExampleScenario.manager acceleration ETV
vector 169 RSUExampleScenario.manager co2emission ETV
vector 170 RSUExampleScenario.node[24].nic.phy80211p RadioState ETV
vector 171 RSUExampleScenario.node[24].nic.phy80211p RadioChannel ETV
vector 172 RSUExampleScenario.manager posx ETV
vector 173 RSUExampleScenario.manager posy ETV
vector 174 RSUExampleScenario.manager speed ETV
vector 175 RSUExampleScenario.manager acceleration ETV
vector 176 RSUExampleScenario.manager co2emission ETV
vector 177 RSUExampleScenario.node[25].nic.phy80211p RadioState ETV
vector 178 RSUExampleScenario.node[25].nic.phy80211p RadioChannel ETV
vector 179 RSUExampleScenario.manager posx ETV
vector 180 RSUExampleScenario.manager posy ETV
vector 181 RSUExampleScenario.manager speed ETV
vector 182 RSUExampleScenario.manager acceleration ETV
vector 183 RSUExampleScenario.manager co2emission ETV
vector 184 RSUExampleScenario.node[26].nic.phy80211p RadioState ETV
vector 185 RSUExampleScenario.node[26].nic.phy80211p RadioChannel ETV
vector 186 RSUExampleScenario.manager posx ETV
vector 187 RSUExampleScenario.manager posy ETV
vector 188 RSUExampleScenario.manager speed ETV
vector 189 RSUExampleScenario.manager acceleration ETV
vector 190 RSUExampleScenario.manager co2emission ETV
vector 191 RSUExampleScenario.node[27].nic.phy80211p RadioState ETV
vector 192 RSUExampleScenario.node[27].nic.phy80211p RadioChannel ETV
vector 193 RSUExampleScenario.manager posx ETV
vector 194 RSUExampleScenario.manager posy ETV
vector 195 RSUExampleScenario.manager speed ETV
vector 196 RSUExampleScenario.manager acceleration ETV
vector 197 RSUExampleScenario.manager co2emission ETV
vector 198 RSUExampleScenario.node[28].nic.phy80211p RadioState ETV
vector 199 RSUExampleScenario.node[28].nic.phy80211p RadioChannel ETV
vector 200 RSUExampleScenario.manager posx ETV
vector 201 RSUExampleScenario.manager posy ETV
4	2	1	2414.8476884116
4	3	2	2411.8243290941
4	4	3	2407.1592244543
4	5	4	2402.288200066
4	6	5	2396.1394374635
4	7	6	2388.6993875942
4	8	7	2379.889221533
4	9	8	2370.1207192459
4	10	9	2360.3141803208
4	11	10	2350.5099475634
4	12	11	2341.0010868867
4	13	12	2334.5620136983
4	14	13	2337.6803779466
4	15	14	2348.3497968862
4	16	15	2358.6961674725
4	17	16	2371.6616533546
4	18	17	2385.4706804305
4	19	18	2399.3588350668
4	20	19	2412.4541998667
4	21	20	2421.4418196582
4	22	21	2428.417609864
4	23	22	2431.468930052
4	24	23	2433.1513403206
4	25	24	2435.1237040944
4	26	25	2437.2173147583
4	27	26	2438.6437980286
4	28	27	2439.5074353185
4	29	28	2440.517813261
4	30	29	2441.5286354903
4	31	30	2442.5392864447
4	32	31	2443.5505626462
4	33	32	2444.5611125134
4	34	33	2445.5724211388
4	35	34	2446.5834693939
4	36	35	2447.5934051003
4	37	36	2448.6036931522
4	38	37	2449.6148620235
4	39	38	2450.6248001783
4	40	39	2449.5880553933
4	41	40	2448.4757357414
4	42	41	2447.3635385588
4	43	42	2446.250303259
4	44	43	2445.1365203297
4	45	44	2444.0235521834
4	46	45	2442.9111769209
4	47	46	2441.7982721732
4	48	47	2440.6856421625
4	49	48	2439.7151308154
4	50	49	2438.7725309408
4	51	50	2437.9056889905
4	52	51	2432.8785054281
4	53	52	2422.5273191113
4	54	53	2409.439604845
4	55	54	2395.517893619
4	56	55	2381.592286239
4	57	56	2367.6659531716
4	58	57	2353.7601239877
4	59	58	2339.8337569573
4	60	59	2325.9069679289
4	61	60	2311.9542202253
4	62	61	2298.0325140053
4	63	62	2284.0857072632
4	64	63	2270.1754193477
4	65	64	2256.2378749268
4	66	65	2242.3725172955
4	67	66	2228.5623045168
4	68	67	2214.8068758136
4	69	68	2201.6159272967
4	70	69	2188.41049514
4	71	70	2175.4595331684
4	72	71	2163.4460695032
4	73	72	2152.2029822947
4	74	73	2144.5427125699
4	76	74	2140.7603855053
4	77	75	2140.3234504706
4	78	76	2140.3234504706
4	79	77	2140.3234504706
4	80	78	2140.3234504706
4	81	79	2140.3234504706
4	82	80	2140.3234504706
4	83	81	2140.3234504706
4	84	82	2140.3234504706
4	85	83	2140.3234504706
4	86	84	2140.3234504706
4	87	85	2140.3234504706
5	2	1	1578.4613427464
5	3	2	1579.5715045081
5	4	3	1581.5561876604
5	5	4	1586.4898643075
5	6	5	1592.7177137369
5	7	6	1600.2534592729
5	8	7	1609.1769437566
5	9	8	1619.0710908128
5	10	9	1629.0037637418
5	11	10	1638.9341008412
5	12	11	1649.1129276818
5	13	12	1661.0453354148
5	14	13	1673.5713017788
5	15	14	1682.4825292248
5	16	15	1691.8131453674
5	17	16	1695.5671389326
5	18	17	1697.3762977775
5	19	18	1698.7149431584
5	20	19	1699.9531973498
5	21	20	1700.8030368192
5	22	21	1701.4822415169
5	23	22	1709.488976148
5	24	23	1720.5600911779
5	25	24	1733.5392477075
5	26	25	1747.3162704222
5	27	26	1761.1584832035
5	28	27	1775.0702432813
5	29	28	1788.9649324082
5	30	29	1802.8657313576
5	31	30	1816.7641749373
5	32	31	1830.6712168986
5	33	32	1844.5682703312
5	34	33	1858.4757581847
5	35	34	1872.3796654344
5	36	35	1886.2682729438
5	37	36	1900.1617258992
5	38	37	1914.0672918586
5	39	38	1927.95593304
5	40	39	1941.8192613758
5	41	40	1955.7024557721
5	42	41	1969.5841215905
5	43	42	1983.4787444612
5	44	43	1997.3802024601
5	45	44	2011.2714909082
5	46	45	2025.1553793969
5	47	46	2039.0458765477
5	48	47	2052.9329446238
5	49	48	2066.8462265795
5	50	49	2080.7728807703
5	51	50	2094.6498483503
5	52	51	2107.3969092406
5	53	52	2116.410831539
5	54	53	2120.9360540062
5	55	54	2120.5048353085
5	56	55	2120.0344859883
5	57	56	2119.5641121576
5	58	57	2119.0944308629
5	59	58	2118.6240558857
5	60	59	2118.1536666537
5	61	60	2117.6824006466
5	62	61	2117.2121830918
5	63	62	2116.7411177447
5	64	63	2116.2712858524
5	65	64	2115.8005333487
5	66	65	2114.7955725584
5	67	66	2112.8371776454
5	68	67	2110.6451732265
5	69	68	2106.1714176713
5	70	69	2101.6927499389
5	71	70	2096.6090699211
5	72	71	2089.5369335469
5	73	72	2082.9183056299
5	74	73	2078.4088257942
5	76	74	2076.1822295729
5	77	75	2075.9250128167
5	78	76	2075.9250128167
5	79	77	2075.9250128167
5	80	78	2075.9250128167
5	81	79	2075.9250128167
5	82	80	2075.9250128167
5	83	81	2075.9250128167
5	84	82	2075.9250128167
5	85	83	2075.9250128167
5	86	84	2075.9250128167
5	87	85	2075.9250128167
6	3	2	4.1061966058897
6	4	3	6.0195495591482
6	5	4	7.7148368984793
6	6	5	9.5879868385225
6	7	6	11.391389363371
6	8	7	13.513839789145
6	9	8	13.99235115225
6	10	9	13.890224446259
6	11	10	13.976677174468
6	12	11	13.994826577434
6	13	12	13.923680325528
6	14	13	13.923542996629
6	15	14	13.91007151508
6	16	15	13.964598868005
6	17	16	13.995233640105
6	18	17	13.952304350403
6	19	18	13.956911946491
6	20	19	11.503494614513
6	21	20	7.0034946145128
6	22	21	7.8970062485022
6	23	22	10.10483181514
6	24	23	11.990706169653
6	25	24	13.981089308816
6	26	25	13.965594365916
6	27	26	13.989059597438
6	28	27	13.956378436291
6	29	28	13.910982951869
6	30	29	13.88918493646
6	31	30	13.908189346099
6	32	31	13.983992603337
6	33	32	13.971500478752
6	34	33	13.873081948087
6	35	34	13.985133641064
6	36	35	13.886848415199
6	37	36	13.876205747321
6	38	37	13.967912819823
6	39	38	13.871047234884
6	40	39	13.89239756926
6	41	40	13.872267716837
6	42	41	13.999815066161
6	43	42	13.964707984752
6	44	43	13.906584702837
6	45	44	13.922364303169
6	46	45	13.929034490574
6	47	46	13.93922677479
6	48	47	13.924399639922
6	49	48	13.96850544848
6	50	49	13.986686690277
6	51	50	13.935194088209
6	52	51	13.930097484484
6	53	52	13.948393711536
6	54	53	13.882971800906
6	55	54	13.87138918183
6	56	55	13.933780807857
6	57	56	13.942265776542
6	58	57	13.95140511482
6	59	58	13.886548467774
6	60	59	13.920721456567
6	61	60	13.906796863726
6	62	61	13.917803910668
6	63	62	13.924582225601
6	64	63	13.959688465288
6	65	64	13.957318032989
6	66	65	13.940553226951
6	67	66	13.879855337965
6	68	67	13.977758804618
6	69	68	13.914176650653
6	70	69	13.928041475909
6	71	70	13.977535404016
6	72	71	13.928572678084
6	73	72	11.364046791626
6	74	73	6.8640467916256
6	76	74	2.3640467916256
6	77	75	0
6	78	76	0
6	79	77	0
6	80	78	0
6	81	79	0
6	82	80	0
6	83	81	0
6	84	82	0
6	85	83	0
6	86	84	0
6	87	85	0
7	4	3	1.9133529532584
7	5	4	1.6952873393311
7	6	5	1.8731499400432
7	7	6	1.8034025248489
7	8	7	2.1224504257739
7	9	8	0.47851136310433
7	10	9	-0.1021267059911
7	11	10	0.086452728209551
7	12	11	0.018149402965792
7	13	12	-0.071146251906175
7	14	13	-0.0001373288989992
7	15	14	-0.013471481548622
7	16	15	0.054527352924923
7	17	16	0.03063477210002
7	18	17	-0.04292928970186
7	19	18	0.0046075960877356
7	20	19	-2.4534173319781
7	21	20	-4.5
7	22	21	0.8935116339894
7	23	22	2.2078255666373
7	24	23	1.8858743545134
7	25	24	1.9903831391631
7	26	25	-0.01549494290026
7	27	26	0.023465231521987
7	28	27	-0.032681161146611
7	29	28	-0.045395484422334
7	30	29	-0.021798015409148
7	31	30	0.019004409639164
7	32	31	0.075803257238585
7	33	32	-0.012492124584968
7	34	33	-0.098418530665803
7	35	34	0.11205169297755
7	36	35	-0.098285225864965
7	37	36	-0.01064266787842
7	38	37	0.091707072502468
7	39	38	-0.096865584938786
7	40	39	0.021350334375166
7	41	40	-0.020129852422979
7	42	41	0.12754734932445
7	43	42	-0.035107081409079
7	44	43	-0.058123281914741
7	45	44	0.015779600332026
7	46	45	0.0066701874043797
7	47	46	0.010192284216172
7	48	47	-0.014827134867664
7	49	48	0.044105808557942
7	50	49	0.018181241797283
7	51	50	-0.051492602068466
7	52	51	-0.0050966037251055
7	53	52	0.018296227052343
7	54	53	-0.065421910630539
7	55	54	-0.011582619075197
7	56	55	0.062391626026946
7	57	56	0.0084849686850799
7	58	57	0.0091393382777465
7	59	58	-0.064856647045817
7	60	59	0.034172988792415
7	61	60	-0.013924592840485
7	62	61	0.011007046941668
7	63	62	0.0067783149331806
7	64	63	0.035106239686721
7	65	64	-0.0023704322986315
7	66	65	-0.016764806038699
7	67	66	-0.060697888985743
7	68	67	0.097903466653079
7	69	68	-0.063582153965253
7	70	69	0.013864825256169
7	71	70	0.049493928106967
7	72	71	-0.048962725931778
7	73	72	-2.5645258864584
7	74	73	-4.5
7	76	74	-4.5
7	77	75	-2.3640467916256
7	78	76	0
7	79	77	0
7	80	78	0
7	81	79	0
7	82	80	0
7	83	81	0
7	84	82	0
7	85	83	0
7	86	84	0
7	87	85	0
8	4	3	4.1962556146115
8	5	4	4.6765885426193
8	6	5	5.9822455727343
8	7	6	6.7469998477461
8	8	7	8.9023657158011
8	9	8	3.651678681686
8	10	9	1.6857621818206
8	11	10	2.3276633668785
8	12	11	2.0995306276608
8	13	12	1.7923040941768
8	14	13	2.0305681317735
8	15	14	1.9844951865828
8	16	15	2.2187318873595
8	17	16	2.1416854339172
8	18	17	1.8896148890835
8	19	18	2.0499339673421
8	20	19	0.973
8	21	20	0.973
8	22	21	3.236958348016
8	23	22	7.0694109561587
8	24	23	7.2974163894139
8	25	24	8.7433911631671
8	26	25	1.9831721788576
8	27	26	2.116835898497
8	28	27	1.9244585801898
8	29	28	1.8775583559564
8	30	29	1.9545657515643
8	31	30	2.0931646705581
8	32	31	2.2926746988581
8	33	32	1.993865292131
8	34	33	1.6968396252803
8	35	34	2.4149847823944
8	36	35	1.6983583398882
8	37	36	1.9906198998388
8	38	37	2.3442713071536
8	39	38	1.7018725964397
8	40	39	2.0993392475273
8	41	40	1.9585122345881
8	42	41	2.4691677522194
8	43	42	1.9170802753567
8	44	43	1.8345014514108
8	45	44	2.0838538984303
8	46	45	2.0539801513469
8	47	46	2.0668686152862
8	48	47	1.9813596940184
8	49	48	2.1840996762636
8	50	49	2.0987681125428
8	51	50	1.8592856847688
8	52	51	2.0145873760113
8	53	52	2.0950692067684
8	54	53	1.8080099866508
8	55	54	1.9870007069688
8	56	55	2.2415869227426
8	57	56	2.0614496349521
8	58	57	2.0646020593826
8	59	58	1.8102089718445
8	60	59	2.1453880261281
8	61	60	1.9826536733129
8	62	61	2.0673636130683
8	63	62	2.0538817544551
8	64	63	2.1528270365066
8	65	64	2.0265038417738
8	66	65	1.9764402783138
8	67	66	1.823544423566
8	68	67	2.3663700564531
8	69	68	1.816863137639
8	70	69	2.0780272006119
8	71	70	2.2032702170206
8	72	71	1.8671845150559
8	73	72	0.973
8	74	73	0.973
8	76	74	0.973
8	77	75	0.973
8	78	76	0.973
8	79	77	0.973
8	80	78	0.973
8	81	79	0.973
8	82	80	0.973
8	83	81	0.973
8	84	82	0.973
8	85	83	0.973
8	86	84	0.973
8	87	85	0.973
11	5	4	2414.8767583254
11	6	5	2411.8725636174
11	7	6	2407.2970525089
11	8	7	2402.4626210862
11	9	8	2396.3056860371
11	10	9	2388.8743536096
11	11	10	2380.097228827
11	12	11	2370.3507264333
11	13	12	2360.5878487076
11	14	13	2350.7849318213
11	15	14	2341.2418729237
11	16	15	2334.6305580324
11	17	16	2337.3467480277
11	18	17	2348.0519014368
11	19	18	2358.3998493504
11	20	19	2371.2788021446
11	21	20	2385.0887639745
11	22	21	2398.4985461925
11	23	22	2411.2485283293
11	24	23	2420.6905829484
11	25	24	2427.6440450998
11	26	25	2431.3031180431
11	27	26	2432.9057471878
11	28	27	2434.8184996871
11	29	28	2436.9106889558
11	30	29	2438.5031214217
11	31	30	2439.359314087
11	32	31	2440.3695716034
11	33	32	2441.3815056744
11	34	33	2442.392207776
11	35	34	2443.4019859718
11	36	35	2444.4122552489
11	37	36	2445.4251439738
11	38	37	2446.4367595227
11	39	38	2447.4467230743
11	40	39	2448.4574488286
11	41	40	2449.467800329
11	42	41	2450.4780716181
11	43	42	2449.7461704329
11	44	43	2448.6331060936
11	45	44	2447.5209445587
11	46	45	2446.407523851
11	47	46	2445.2946584851
11	48	47	2444.1824360332
11	49	48	2443.0706190476
11	50	49	2441.9568028547
11	51	50	2440.8451110823
11	52	51	2439.8503503047
11	53	52	2438.9091742415
11	54	53	2438.2310626655
11	55	54	2433.9050446447
11	56	55	2424.21615465
11	57	56	2411.3460908785
11	58	57	2397.4706148925
11	59	58	2383.5587488873
11	60	59	2369.633660475
11	61	60	2355.7048479554
11	62	61	2341.7904321874
11	63	62	2327.8638711022
11	64	63	2313.9188814831
11	65	64	2299.9979078089
11	66	65	2286.0826278217
11	67	66	2272.1469357561
11	68	67	2258.2076214411
11	69	68	2244.3155730069
11	70	69	2230.5273849192
11	71	70	2216.7446519198
11	72	71	2203.5167182724
11	73	72	2190.3178840362
11	74	73	2177.2322881214
11	76	74	2166.0575198019
11	77	75	2157.6433227622
11	78	76	2151.7978679298
11	79	77	2148.12850579
11	80	78	2146.1504391922
11	81	79	2145.2176430746
11	82	80	2144.8457426265
11	83	81	2144.7095674569
11	84	82	2144.6606226763
11	85	83	2144.6429435182
11	86	84	2144.6366379777
11	87	85	2144.6343920679
12	5	4	1578.4506684253
12	6	5	1579.5537930429
12	7	6	1581.4165868293
12	8	7	1586.3131998433
12	9	8	1592.5493268352
12	10	9	1600.0762428036
12	11	10	1608.9662610246
12	12	11	1618.8381252186
12	13	12	1628.7265753681
12	14	13	1638.6555796713
12	15	14	1648.8046840783
12	16	15	1660.6325348346
12	17	16	1673.301875555
12	18	17	1682.2138796467
12	19	18	1691.5459182626
12	20	19	1695.5099147679
12	21	20	1697.3308411958
12	22	21	1698.6335971011
12	23	22	1699.8391930545
12	24	23	1700.7320023719
12	25	24	1701.2941834759
12	26	25	1708.3978488175
12	27	26	1718.9439634858
12	28	27	1731.5308475178
12	29	28	1745.2985167308
12	30	29	1759.1189484736
12	31	30	1773.033284259
12	32	31	1786.9263172904
12	33	32	1800.8424062571
12	34	33	1814.7415532097
12	35	34	1828.6279946407
12	36	35	1842.5211894047
12	37	36	1856.4504067414
12	38	37	1870.362115399
12	39	38	1884.2511058366
12	40	39	1898.150578063
12	41	40	1912.0449035605
12	42	41	1925.9381259941
12	43	42	1939.8457802581
12	44	43	1953.7382693188
12	45	44	1967.6194902081
12	46	45	1981.5164272105
12	47	46	1995.4064328251
12	48	47	2009.2884140396
12	49	48	2023.165334505
12	50	49	2037.0672076773
12	51	50	2050.942565321
12	52	51	2064.8483957723
12	53	52	2078.754013543
12	54	53	2092.6537938379
12	55	54	2105.6893007364
12	56	55	2115.3934075218
12	57	56	2120.5034639826
12	58	57	2120.5707901428
12	59	58	2120.100904949
12	60	59	2119.6305731572
12	61	60	2119.160115581
12	62	61	2118.6901442679
12	63	62	2118.2197627351
12	64	63	2117.748758764
12	65	64	2117.2785659507
12	66	65	2116.8085654471
12	67	66	2116.3378755087
12	68	67	2115.8670632252
12	69	68	2115.0711128758
12	70	69	2113.1158412341
12	71	70	2111.1613431666
12	72	71	2106.8160774671
12	73	72	2102.339647443
12	74	73	2097.6526627708
12	76	74	2091.0742531046
12	77	75	2086.1209481629
12	78	76	2082.6798211997
12	79	77	2080.5197256459
12	80	78	2079.3552690716
12	81	79	2078.806146726
12	82	80	2078.5872148043
12	83	81	2078.5070506316
12	84	82	2078.4782376122
12	85	83	2078.4678301709
12	86	84	2078.4641181994
12	87	85	2078.4627960678
13	6	5	4.0332649588119
13	7	6	5.8265110515686
13	8	7	7.7852127750962
13	9	8	9.5658873894228
13	10	9	11.450149483434
13	11	10	13.391487500134
13	12	11	13.949883621705
13	13	12	13.87602620427
13	14	13	13.885232782268
13	15	14	13.987373048679
13	16	15	13.890608048609
13	17	16	13.887004709987
13	18	17	13.926980708602
13	19	18	13.89086526999
13	20	19	13.965056618985
13	21	20	13.946692067499
13	22	21	13.097137451398
13	23	22	11.939132677032
13	24	23	7.4783001788439
13	25	24	7.8592269216425
13	26	25	9.5749213322898
13	27	26	11.610942506126
13	28	27	13.581243869506
13	29	28	13.973211987913
13	30	29	13.918392209036
13	31	30	13.928662607018
13	32	31	13.985277111761
13	33	32	13.95532245066
13	34	33	13.938708755139
13	35	34	13.908545650935
13	36	35	13.927478809105
13	37	36	13.897819017794
13	38	37	13.989504252097
13	39	38	13.94374062394
13	40	39	13.903882643976
13	41	40	13.969130632835
13	42	41	13.884234787642
13	43	42	13.881978327318
13	44	43	13.927070145076
13	45	44	13.922745489741
13	46	45	13.95273740395
13	47	46	13.968270483359
13	48	47	13.918685564972
13	49	48	13.921468284922
13	50	49	13.897015957548
13	51	50	13.964752228069
13	52	51	13.91147568828
13	53	52	13.974545761354
13	54	53	13.965476403411
13	55	54	13.989670229855
13	56	55	13.951804798429
13	57	56	13.892850009208
13	58	57	13.958218119799
13	59	58	13.933717581006
13	60	59	13.982012811573
13	61	60	13.954506225567
13	62	61	13.954468280503
13	63	62	13.914126337939
13	64	63	13.998578815588
13	65	64	13.932968401979
13	66	65	13.954534002345
13	67	66	13.998651232829
13	68	67	13.999179182528
13	69	68	13.886099785112
13	70	69	13.881868150404
13	71	70	13.887636745651
13	72	71	13.978686858166
13	73	72	13.970344127666
13	74	73	13.925369204739
13	76	74	11.503028205973
13	77	75	8.3084939661969
13	78	76	5.5757626568646
13	79	77	3.3211618849162
13	80	78	1.6266335353547
13	81	79	0.70715133051593
13	82	80	0.26232084274652
13	83	81	0.09568805664727
13	84	82	0.033835632228035
13	85	83	0.012538818862259
13	86	84	0.0044949869302171
13	87	85	0.0015515939487704
14	7	6	1.7932460927567
14	8	7	1.9587017235276
14	9	8	1.7806746143266
14	10	9	1.8842620940111
14	11	10	1.9413380167005
14	12	11	0.5583961215709
14	13	12	-0.073857417434921
14	14	13	0.0092065779981212
14	15	14	0.10214026641101
14	16	15	-0.096765000070445
14	17	16	-0.0036033386224883
14	18	17	0.039975998615846
14	19	18	-0.036115438612178
14	20	19	0.074191348995083
14	21	20	-0.018364551486448
14	22	21	-0.84955461610103
14	23	22	-1.1580047743662
14	24	23	-4.4608324981877
14	25	24	0.38092674279862
14	26	25	1.7156944106473
14	27	26	2.0360211738362
14	28	27	1.9703013633797
14	29	28	0.39196811840698
14	30	29	-0.054819778876846
14	31	30	0.010270397982096
14	32	31	0.056614504742901
14	33	32	-0.029954661100637
14	34	33	-0.016613695521373
14	35	34	-0.030163104203529
14	36	35	0.018933158169965
14	37	36	-0.029659791311714
14	38	37	0.091685234303586
14	39	38	-0.045763628156855
14	40	39	-0.039857979963999
14	41	40	0.065247988859191
14	42	41	-0.08489584519295
14	43	42	-0.0022564603248618
14	44	43	0.045091817758511
14	45	44	-0.0043246553349299
14	46	45	0.029991914208512
14	47	46	0.015533079409506
14	48	47	-0.0495849183877
14	49	48	0.0027827199501917
14	50	49	-0.024452327373437
14	51	50	0.067736270520836
14	52	51	-0.053276539789513
14	53	52	0.063070073074195
14	54	53	-0.0090693579427903
14	55	54	0.024193826443517
14	56	55	-0.037865431425162
14	57	56	-0.058954789221753
14	58	57	0.065368110591081
14	59	58	-0.024500538792926
14	60	59	0.048295230567454
14	61	60	-0.027506586005911
14	62	61	-3.7945064249811e-05
14	63	62	-0.040341942564119
14	64	63	0.08445247764932
14	65	64	-0.065610413609539
14	66	65	0.021565600365866
14	67	66	0.044117230484263
14	68	67	0.0005279496987356
14	69	68	-0.11307939741528
14	70	69	-0.0042316347081215
14	71	70	0.0057685952470639
14	72	71	0.091050112515221
14	73	72	-0.0083427305007344
14	74	73	-0.044974922926631
14	76	74	-2.4223409987658
14	77	75	-3.1945342397763
14	78	76	-2.7327313093324
14	79	77	-2.2546007719484
14	80	78	-1.6945283495614
14	81	79	-0.91948220483881
14	82	80	-0.44483048776941
14	83	81	-0.16663278609925
14	84	82	-0.061852424419235
14	85	83	-0.021296813365776
14	86	84	-0.0080438319320418
14	87	85	-0.0029433929814467
15	7	6	3.9274001426868
15	8	7	5.2041356246368
15	9	8	5.7574507674447
15	10	9	7.0006276784153
15	11	10	8.2432295261252
15	12	11	3.9110016848773
15	13	12	1.7792042638201
15	14	13	2.0579365757541
15	15	14	2.3818636967155
15	16	15	1.7037407999188
15	17	16	2.0152488537881
15	18	17	2.1655550639215
15	19	18	1.906797412239
15	20	19	2.2849654495652
15	21	20	1.9716653983805
15	22	21	0.973
15	23	22	0.973
15	24	23	0.973
15	25	24	2.2554772362628
15	26	25	5.6120472675651
15	27	26	7.5119842129131
15	28	27	8.4455276517466
15	29	28	3.3560730035355
15	30	29	1.8466200733259
15	31	30	2.0660268329645
15	32	31	2.2281549844786
15	33	32	1.9335288120447
15	34	33	1.9767670407741
15	35	34	1.9283950769156
15	36	35	2.0949799016024
15	37	36	1.9290667558988
15	38	37	2.3468857079218
15	39	38	1.8793040227889
15	40	39	1.8954681876561
15	41	40	2.2553467174174
15	42	41	1.7429567241042
15	43	42	2.0192482635441
15	44	43	2.1827359052182
15	45	44	2.0164367628106
15	46	45	2.1348602115454
15	47	46	2.0878872407227
15	48	47	1.8642059318509
15	49	48	2.0401536442479
15	50	49	1.9464315106901
15	51	50	2.2632042711189
15	52	51	1.851180617826
15	53	52	2.2486511283506
15	54	53	2.0047870143605
15	55	54	2.1193583924862
15	56	55	1.9065956504161
15	57	56	1.8305118457369
15	58	57	2.2544630998412
15	59	58	1.9497933768092
15	60	59	2.199742909699
15	61	60	1.9416842431598
15	62	61	2.0340583936544
15	63	62	1.8947902862501
15	64	63	2.3236156337703
15	65	64	1.8116807487081
15	66	65	2.1067187558746
15	67	66	2.1875465210812
15	68	67	2.0405446651404
15	69	68	1.6487905152147
15	70	69	2.0126291187762
15	71	70	2.0466796925005
15	72	71	2.3433989621326
15	73	72	2.0077208397811
15	74	73	1.8802787050508
15	76	74	0.973
15	77	75	0.973
15	78	76	0.973
15	79	77	0.973
15	80	78	0.973
15	81	79	0.973
15	82	80	0.973
15	83	81	0.973
15	84	82	1.1111278658488
15	85	83	1.1105405169147
15	86	84	1.1102081243603
15	87	85	1.1100737482573
18	8	7	2414.8848622198
18	9	8	2412.0691307599
18	10	9	2407.3819784434
18	11	10	2402.4639103656
18	12	11	2396.2016479742
18	13	12	2388.5021761758
18	14	13	2379.5347220144
18	15	14	2369.7521497252
18	16	15	2359.9648396304
18	17	16	2350.1637192596
18	18	17	2340.717056727
18	19	18	2334.4889366638
18	20	19	2338.0188398167
18	21	20	2348.6970945761
18	22	21	2359.0578910074
18	23	22	2372.1753142256
18	24	23	2385.9847009928
18	25	24	2399.0560799135
18	26	25	2411.469456295
18	27	26	2420.8240344936
18	28	27	2428.2511095385
18	29	28	2431.5096723901
18	30	29	2433.2168502312
18	31	30	2435.2011956087
18	32	31	2437.29147981
18	33	32	2438.672857787
18	34	33	2439.5458305131
18	35	34	2440.5569901068
18	36	35	2441.5662171456
18	37	36	2442.5764760413
18	38	37	2443.5864360537
18	39	38	2444.5969193554
18	40	39	2445.6077267987
18	41	40	2446.6171177449
18	42	41	2447.6285385494
18	43	42	2448.6389437378
18	44	43	2449.6489775468
18	45	44	2450.659299592
18	46	45	2449.5461587089
18	47	46	2448.4337074455
18	48	47	2447.3207898499
18	49	48	2446.207873206
18	50	49	2445.0940501215
18	51	50	2443.9833638043
18	52	51	2442.8694501355
18	53	52	2441.7571938549
18	54	53	2440.6460889142
18	55	54	2439.6827321647
18	56	55	2438.7413750661
18	57	56	2437.8192072627
18	58	57	2432.6325302194
18	59	58	2422.106233715
18	60	59	2408.9688818519
18	61	60	2395.0345910933
18	62	61	2381.126587261
18	63	62	2367.2179763186
18	64	63	2353.2984252305
18	65	64	2339.3434596916
18	66	65	2325.3984135713
18	67	66	2311.4586331139
18	68	67	2297.5367558505
18	69	68	2283.6070172336
18	70	69	2269.6839314153
18	71	70	2255.7643697551
18	72	71	2241.8757564033
18	73	72	2228.0688688542
18	74	73	2214.3596332766
18	76	74	2201.1714023183
18	77	75	2187.9686336372
18	78	76	2175.8734212776
18	79	77	2166.9060475181
18	80	78	2160.0570473718
18	81	79	2155.1946690262
18	82	80	2152.0845165758
18	83	81	2150.3460835881
18	84	82	2149.5044575131
18	85	83	2149.1558657689
18	86	84	2149.0223896184
18	87	85	2148.9725696122
19	8	7	1578.4476927174
19	9	8	1579.4816146148
19	10	9	1581.3305685576
19	11	10	1586.311893981
19	12	11	1592.6547030602
19	13	12	1600.4532072712
19	14	13	1609.5360029312
19	15	14	1619.4444009606
19	16	15	1629.3575977338
19	17	16	1639.2847824143
19	18	17	1649.4765304932
19	19	18	1661.4854336744
19	20	19	1673.8446300924
19	21	20	1682.7957309801
19	22	21	1692.1393567109
19	23	22	1695.6439150097
19	24	23	1697.4374776948
19	25	24	1698.6863156371
19	26	25	1699.860083269
19	27	26	1700.7446211064
19	28	27	1701.4003788568
19	29	28	1709.757081449
19	30	29	1720.9911797
19	31	30	1734.0491812732
19	32	31	1747.8043141738
19	33	32	1761.6824669717
19	34	33	1775.5982529195
19	35	34	1789.5036912933
19	36	35	1803.3825532272
19	37	36	1817.2756052278
19	38	37	1831.1645469936
19	39	38	1845.0606850199
19	40	39	1858.9612806309
19	41	40	1872.8423966132
19	42	41	1886.7514271513
19	43	42	1900.646490965
19	44	43	1914.536447579
19	45	44	1928.4487420022
19	46	45	1942.3421864314
19	47	46	1956.2270235084
19	48	47	1970.117681019
19	49	48	1984.0083266487
19	50	49	1997.9102858361
19	51	50	2011.7730940934
19	52	51	2025.6761838896
19	53	52	2039.5585873295
19	54	53	2053.4266205495
19	55	54	2067.3249077424
19	56	55	2081.2332002614
19	57	56	2095.1082015075
19	58	57	2107.8060795395
19	59	58	2116.5990612879
19	60	59	2120.9591539605
19	61	60	2120.4885113519
19	62	61	2120.0187566066
19	63	62	2119.5489813555
19	64	63	2119.0788365919
19	65	64	2118.6074956749
19	66	65	2118.1364897946
19	67	66	2117.6656617671
19	68	67	2117.1954384353
19	69	68	2116.7249495788
19	70	69	2116.2546854271
19	71	70	2115.7845403058
19	72	71	2114.7251280239
19	73	72	2112.7672046544
19	74	73	2110.4934893819
19	76	74	2106.020655496
19	77	75	2101.5428910907
19	78	76	2096.8527193153
19	79	77	2091.5737679731
19	80	78	2087.5418697288
19	81	79	2084.6794643719
19	82	80	2082.8485667314
19	83	81	2081.8251786809
19	84	82	2081.3297266997
19	85	83	2081.1245162431
19	86	84	2081.0459409412
19	87	85	2081.0166126899
20	9	8	3.930963162637
20	10	9	5.9263112237273
20	11	10	7.8381960794392
20	12	11	9.790430662247
20	13	12	11.728100012452
20	14	13	13.629514704516
20	15	14	13.941568216505
20	16	15	13.881279769889
20	17	16	13.897868440901
20	18	17	13.925429278756
20	19	18	13.988464023101
20	20	19	13.968606978769
20	21	20	13.918509052745
20	22	21	13.924308654484
20	23	22	13.951645852409
20	24	23	13.87926841794
20	25	24	12.793519969494
20	26	25	11.84351296104
20	27	26	7.4038563960913
20	28	27	8.4727548549238
20	29	28	10.367830629347
20	30	29	12.18869854925
20	31	30	13.961659159465
20	32	31	13.954832898835
20	33	32	13.985199820679
20	34	33	13.894128147855
20	35	34	13.93747920732
20	36	35	13.922516686122
20	37	36	13.936551663636
20	38	37	13.899921349036
20	39	38	13.905686459227
20	40	39	13.974518650502
20	41	40	13.926188751743
20	42	41	13.91506882193
20	43	42	13.902084701743
20	44	43	13.906688486487
20	45	44	13.974945872892
20	46	45	13.897515056985
20	47	46	13.921723058985
20	48	47	13.971591069859
20	49	48	13.925448836959
20	50	49	13.871581884674
20	51	50	13.876423048137
20	52	51	13.873938687814
20	53	52	13.902598275633
20	54	53	13.87539361449
20	55	54	13.977128260287
20	56	55	13.895400740923
20	57	56	13.950985880545
20	58	57	13.943263569523
20	59	58	13.891897078918
20	60	59	13.874182712052
20	61	60	13.982985400616
20	62	61	13.927164004399
20	63	62	13.899862960158
20	64	63	13.960168966714
20	65	64	13.961850514959
20	66	65	13.962242161995
20	67	66	13.957377178506
20	68	67	13.932528918332
20	69	68	13.977439161665
20	70	69	13.873707558191
20	71	70	13.945779315263
20	72	71	13.942668949808
20	73	72	13.91575948562
20	74	73	13.907857767178
20	76	74	13.900433905981
20	77	75	13.923825558184
20	78	76	11.814122621662
20	79	77	9.337223026894
20	80	78	6.8732055613698
20	81	79	4.7416921212429
20	82	80	2.7530894052557
20	83	81	1.4852991123435
20	84	82	0.657674669026
20	85	83	0.25043175996506
20	86	84	0.09578595091226
20	87	85	0.036137165618741
21	10	9	1.9953480610903
21	11	10	1.9118848557118
21	12	11	1.9522345828079
21	13	12	1.9376693502045
21	14	13	1.9014146920643
21	15	14	0.31205351198868
21	16	15	-0.060288446615449
21	17	16	0.016588671011849
21	18	17	0.027560837855562
21	19	18	0.063034744344186
21	20	19	-0.019857044331729
21	21	20	-0.050097926023881
21	22	21	0.0057996017392714
21	23	22	0.027337197924499
21	24	23	-0.072377434468363
21	25	24	-1.0857484484466
21	26	25	-0.95000700845353
21	27	26	-4.439656564949
21	28	27	1.0688984588324
21	29	28	1.8950757744233
21	30	29	1.8208679199032
21	31	30	1.7729606102145
21	32	31	-0.0068262606300422
21	33	32	0.03036692184396
21	34	33	-0.091071672823745
21	35	34	0.043351059465204
21	36	35	-0.01496252119774
21	37	36	0.014034977513365
21	38	37	-0.036630314600188
21	39	38	0.0057651101914225
21	40	39	0.068832191275433
21	41	40	-0.048329898759256
21	42	41	-0.01111992981285
21	43	42	-0.012984120186884
21	44	43	0.0046037847432316
21	45	44	0.068257386405021
21	46	45	-0.077430815906265
21	47	46	0.02420800199965
21	48	47	0.049868010873906
21	49	48	-0.046142232900019
21	50	49	-0.053866952285171
21	51	50	0.0048411634634249
21	52	51	-0.0024843603232867
21	53	52	0.028659587819128
21	54	53	-0.027204661143477
21	55	54	0.10173464579741
21	56	55	-0.08172751936363
21	57	56	0.05558513962198
21	58	57	-0.007722311022226
21	59	58	-0.051366490605288
21	60	59	-0.017714366866276
21	61	60	0.10880268856417
21	62	61	-0.055821396217215
21	63	62	-0.027301044240593
21	64	63	0.06030600655591
21	65	64	0.0016815482452515
21	66	65	0.00039164703572148
21	67	66	-0.0048649834888046
21	68	67	-0.024848260174041
21	69	68	0.044910243332852
21	70	69	-0.10373160347343
21	71	70	0.072071757072118
21	72	71	-0.0031103654555054
21	73	72	-0.02690946418792
21	74	73	-0.0079017184418628
21	76	74	-0.0074238611967292
21	77	75	0.023391652202699
21	78	76	-2.1097029365225
21	79	77	-2.4768995947677
21	80	78	-2.4640174655242
21	81	79	-2.1315134401269
21	82	80	-1.9886027159872
21	83	81	-1.2677902929122
21	84	82	-0.8276244433175
21	85	83	-0.40724290906094
21	86	84	-0.1546458090528
21	87	85	-0.059648785293519
22	10	9	4.2649508166984
22	11	10	5.1441608835298
22	12	11	6.2752675611406
22	13	12	7.3015557220543
22	14	13	8.2469806235914
22	15	14	3.0813423760871
22	16	15	1.825038103975
22	17	16	2.0839753981971
22	18	17	2.1237162576214
22	19	18	2.2501690272635
22	20	19	1.9687844028223
22	21	20	1.8624692368163
22	22	21	2.0505690853877
22	23	22	2.1258147014109
22	24	23	1.7844264067381
22	25	24	0.973
22	26	25	0.973
22	27	26	0.973
22	28	27	3.7575341079103
22	29	28	6.4482222684255
22	30	29	7.2140195323343
22	31	30	8.0005078452345
22	32	31	2.0112657729674
22	33	32	2.1396802881933
22	34	33	1.7230808185304
22	35	34	2.1780640158967
22	36	35	1.980720158986
22	37	36	2.0794954629949
22	38	37	1.9059152732614
22	39	38	2.0485298427513
22	40	39	2.2680539427787
22	41	40	1.8690933945628
22	42	41	1.9928741031296
22	43	42	1.9853406570184
22	44	43	2.0447410785649
22	45	44	2.2661688405632
22	46	45	1.7690384486571
22	47	46	2.1120645090544
22	48	47	2.2038504354464
22	49	48	1.8763684319447
22	50	49	1.8456610488087
22	51	50	2.0424227277346
22	52	51	2.0176736696174
22	53	52	2.1249196677245
22	54	53	1.9351566644326
22	55	54	2.3791959019776
22	56	55	1.7544739900146
22	57	56	2.2207177955444
22	58	57	2.007091813677
22	59	58	1.8558336695686
22	60	59	1.9667740746073
22	61	60	2.4037578966905
22	62	61	1.844036691971
22	63	62	1.9371616602798
22	64	63	2.2376623461065
22	65	64	2.0405988072341
22	66	65	2.0362986285583
22	67	66	2.0181188628954
22	68	67	1.9485115452067
22	69	68	2.1878187851485
22	70	69	1.6791237400594
22	71	70	2.2755265645048
22	72	71	2.0225291815531
22	73	72	1.9399893034582
22	74	73	2.0029455902709
22	76	74	2.0038046724737
22	77	75	2.1095517709643
22	78	76	0.973
22	79	77	0.973
22	80	78	0.973
22	81	79	0.973
22	82	80	0.973
22	83	81	0.973
22	84	82	0.973
22	85	83	0.973
22	86	84	0.973
22	87	85	1.111223776563
25	11	10	2414.8652957816
25	12	11	2411.9402292009
25	13	12	2407.1594214574
25	14	13	2402.0350675649
25	15	14	2395.5354035812
25	16	15	2387.5598131203
25	17	16	2378.2983909701
25	18	17	2368.4972038758
25	19	18	2358.719633554
25	20	19	2348.9248444787
25	21	20	2339.614370346
25	22	21	2334.1997176057
25	23	22	2339.4193692133
25	24	23	2350.023330241
25	25	24	2360.3662725991
25	26	25	2373.90233667
25	27	26	2387.7152259793
25	28	27	2400.5914429313
25	29	28	2412.9398871803
25	30	29	2421.7139854309
25	31	30	2429.0882121673
25	32	31	2431.6639768599
25	33	32	2433.4302155024
25	34	33	2435.4611475593
25	35	34	2437.5533698815
25	36	35	2438.7684759141
25	37	36	2439.671540139
25	38	37	2440.6813741141
25	39	38	2441.6917844916
25	40	39	2442.7022041357
25	41	40	2443.7124593587
25	42	41	2444.7229332504
25	43	42	2445.7337078364
25	44	43	2446.7459111849
25	45	44	2447.757486716
25	46	45	2448.7683903823
25	47	46	2449.7777371067
25	48	47	2450.5176811377
25	49	48	2449.4057673637
25	50	49	2448.2921364765
25	51	50	2447.1808208324
25	52	51	2446.0691226661
25	53	52	2444.9566500478
25	54	53	2443.8447802094
25	55	54	2442.7322517141
25	56	55	2441.6188783727
25	57	56	2440.5052318306
25	58	57	2439.5638147272
25	59	58	2438.6536858481
25	60	59	2437.4948448264
25	61	60	2431.5334230323
25	62	61	2420.4715117268
25	63	62	2407.1766999349
25	64	63	2393.2654671065
25	65	64	2379.3340416566
25	66	65	2365.4130733985
25	67	66	2351.4761689551
25	68	67	2337.5268439178
25	69	68	2323.6086323152
25	70	69	2309.6673963735
25	71	70	2295.7412469359
25	72	71	2281.8125583379
25	73	72	2267.8962458479
25	74	73	2253.9590490381
25	76	74	2240.1072131846
25	77	75	2226.3237636529
25	78	76	2212.6768161277
25	79	77	2199.4867584505
25	80	78	2186.5727009254
25	81	79	2175.9405364584
25	82	80	2168.1032066894
25	83	81	2162.2482135491
25	84	82	2158.1847134057
25	85	83	2155.6704383467
25	86	84	2154.307724961
25	87	85	2153.6793911499
26	11	10	1578.4548774119
26	12	11	1579.5289465943
26	13	12	1581.5559881236
26	14	13	1586.7462526578
26	15	14	1593.3295168448
26	16	15	1601.4076912217
26	17	16	1610.7882359559
26	18	17	1620.7154882178
26	19	18	1630.6188199436
26	20	19	1640.5395918936
26	21	20	1650.8881406859
26	22	21	1663.2272230769
26	23	22	1674.9756418047
26	24	23	1683.991763521
26	25	24	1693.3192880014
26	26	25	1695.9020503219
26	27	26	1697.6139621651
26	28	27	1698.8314944636
26	29	28	1699.9991223291
26	30	29	1700.8287719106
26	31	30	1701.8119543158
26	32	31	1710.77248332
26	33	32	1722.3952316754
26	34	33	1735.7597972872
26	35	34	1749.5276840087
26	36	35	1763.4065813264
26	37	36	1777.3270081691
26	38	37	1791.2142166747
26	39	38	1805.1093518483
26	40	39	1819.0046144547
26	41	40	1832.8976159496
26	42	41	1846.7936245678
26	43	42	1860.6937683271
26	44	43	1874.6135603888
26	45	44	1888.5247187214
26	46	45	1902.4266375881
26	47	46	1916.3071454344
26	48	47	1930.2163243052
26	49	48	1944.0944528161
26	50	49	1957.9940131316
26	51	50	1971.8646762054
26	52	51	1985.7401136523
26	53	52	1999.6252172682
26	54	53	2013.5027974071
26	55	54	2027.3885984384
26	56	55	2041.2849442475
26	57	56	2055.1846999563
26	58	57	2069.0818802128
26	59	58	2082.9846842764
26	60	59	2096.8273224197
26	61	60	2109.1980060218
26	62	61	2117.3297997853
26	63	62	2120.89862148
26	64	63	2120.4287576731
26	65	64	2119.9582118429
26	66	65	2119.4880192131
26	67	66	2119.0172883254
26	68	67	2118.5461379206
26	69	68	2118.0760383997
26	70	69	2117.6051612115
26	71	70	2117.1347935833
26	72	71	2116.6643401925
26	73	72	2116.1943048155
26	74	73	2115.723564052
26	76	74	2114.4743349263
26	77	75	2112.5197352488
26	78	76	2109.9227561578
26	79	77	2105.4493027339
26	80	78	2101.0694557112
26	81	79	2096.8922289629
26	82	80	2092.2785166753
26	83	81	2088.8317746604
26	84	82	2086.4396562865
26	85	83	2084.9595422586
26	86	84	2084.157334405
26	87	85	2083.7874442115
27	12	11	4.0076977833542
27	13	12	6.1677344774264
27	14	13	8.1549676716625
27	15	14	10.178332106699
27	16	15	12.262859039094
27	17	16	13.909239285488
27	18	17	13.972104677679
27	19	18	13.964405047395
27	20	19	13.904001857305
27	21	20	13.959390929798
27	22	21	13.878038117993
27	23	22	13.946876353603
27	24	23	13.944667257406
27	25	24	13.919344021892
27	26	25	13.927560248445
27	27	26	13.871213583788
27	28	27	12.691334807668
27	29	28	11.253789109264
27	30	29	6.8021452137647
27	31	30	8.5806848426844
27	32	31	10.511503565412
27	33	32	12.634297992723
27	34	33	13.965718502484
27	35	34	13.984844662666
27	36	35	13.956789441942
27	37	36	13.956542154332
27	38	37	13.917345386401
27	39	38	13.978046209081
27	40	39	13.982312166321
27	41	40	13.915473192113
27	42	41	13.879970237834
27	43	42	13.897895857247
27	44	43	13.999869057706
27	45	44	13.978634591533
27	46	45	13.942230677728
27	47	46	13.955766034983
27	48	47	13.950300372976
27	49	48	13.917481608128
27	50	49	13.942320762996
27	51	50	13.893100212866
27	52	51	13.91633811252
27	53	52	13.928179549885
27	54	53	13.968941585214
27	55	54	13.972987024514
27	56	55	13.957628285089
27	57	56	13.894821882746
27	58	57	13.9606701646
27	59	58	13.982247338414
27	60	59	13.974088552413
27	61	60	13.92781890474
27	62	61	13.871840020602
27	63	62	13.950818891171
27	64	63	13.896373478309
27	65	64	13.98123223257
27	66	65	13.934642261642
27	67	66	13.925234322341
27	68	67	13.991972472956
27	69	68	13.975208927125
27	70	69	13.946616810667
27	71	70	13.894927249895
27	72	71	13.997537077854
27	73	72	13.937148143742
27	74	73	13.949254455173
27	76	74	13.997392567724
27	77	75	13.892845066143
27	78	76	13.886739599619
27	79	77	13.915855845532
27	80	78	12.828711824371
27	81	79	10.389000575063
27	82	80	8.097997909287
27	83	81	5.794628169674
27	84	82	3.825260619805
27	85	83	2.2231521751121
27	86	84	1.1355791697037
27	87	85	0.47706516133759
28	13	12	2.1600366940722
28	14	13	1.9872331942362
28	15	14	2.0233644350362
28	16	15	2.0845269323955
28	17	16	1.6463802463939
28	18	17	0.062865392190869
28	19	18	-0.0076996302837493
28	20	19	-0.060403190089856
28	21	20	0.055389072492252
28	22	21	-0.081352811804972
28	23	22	0.068838235610166
28	24	23	-0.0022090961970385
28	25	24	-0.025323235513643
28	26	25	0.0082162265526122
28	27	26	-0.056346664656886
28	28	27	-1.1798787761197
28	29	28	-1.4375456984038
28	30	29	-4.4516438954996
28	31	30	1.7785396289197
28	32	31	1.9308187227277
28	33	32	2.1227944273106
28	34	33	1.3314205097611
28	35	34	0.01912616018206
28	36	35	-0.028055220723617
28	37	36	-0.00024728761054682
28	38	37	-0.039196767930406
28	39	38	0.060700822679792
28	40	39	0.0042659572395483
28	41	40	-0.06683897420764
28	42	41	-0.035502954279073
28	43	42	0.017925619413145
28	44	43	0.10197320045903
28	45	44	-0.021234466172753
28	46	45	-0.036403913805263
28	47	46	0.013535357255023
28	48	47	-0.0054656620067544
28	49	48	-0.032818764848635
28	50	49	0.024839154868388
28	51	50	-0.049220550130123
28	52	51	0.023237899653614
28	53	52	0.011841437364929
28	54	53	0.040762035329827
28	55	54	0.0040454392996612
28	56	55	-0.015358739425428
28	57	56	-0.062806402342394
28	58	57	0.065848281853832
28	59	58	0.021577173813712
28	60	59	-0.0081587860011503
28	61	60	-0.046269647672306
28	62	61	-0.055978884138167
28	63	62	0.078978870569262
28	64	63	-0.054445412862115
28	65	64	0.084858754260932
28	66	65	-0.046589970928617
28	67	66	-0.009407939300873
28	68	67	0.066738150615711
28	69	68	-0.0167635458312
28	70	69	-0.028592116457874
28	71	70	-0.051689560771921
28	72	71	0.10260982795851
28	73	72	-0.060388934111689
28	74	73	0.01210631143069
28	76	74	0.048138112551532
28	77	75	-0.10454750158125
28	78	76	-0.0061054665246054
28	79	77	0.02911624591332
28	80	78	-1.0871440211613
28	81	79	-2.4397112493077
28	82	80	-2.2910026657759
28	83	81	-2.303369739613
28	84	82	-1.969367549869
28	85	83	-1.6021084446929
28	86	84	-1.0875730054084
28	87	85	-0.65851400836608
29	13	12	4.6399364442395
29	14	13	5.459099048015
29	15	14	6.6616810382017
29	16	15	8.0324172249288
29	17	16	7.5484463594625
29	18	17	2.247674957111
29	19	18	2.0092894812461
29	20	19	1.8266349661585
29	21	20	2.2210298717235
29	22	21	1.7543037306746
29	23	22	2.264789170887
29	24	23	2.0257606197441
29	25	24	1.9456524984792
29	26	25	2.059016748537
29	27	26	1.8373388380236
29	28	27	0.973
29	29	28	0.973
29	30	29	0.973
29	31	30	5.2602175796137
29	32	31	6.6156566027659
29	33	32	8.3694083781091
29	34	33	6.5165491496521
29	35	34	2.1017560319966
29	36	35	1.9400571066544
29	37	36	2.0335662245147
29	38	37	1.8989280401226
29	39	38	2.2410813776431
29	40	39	2.0514099723484
29	41	40	1.8060532207838
29	42	41	1.9078333116417
29	43	42	2.0884562634303
29	44	43	2.3828885778754
29	45	44	1.9651224554136
29	46	45	1.910615850939
29	47	46	2.0798426520326
29	48	47	2.015384407742
29	49	48	1.9203331804895
29	50	49	2.1164070517746
29	51	50	1.8631262853673
29	52	51	2.108230627045
29	53	52	2.0712498573739
29	54	53	2.1728920736305
29	55	54	2.049703034099
29	56	55	1.9828454643184
29	57	56	1.8177867315371
29	58	57	2.2563679833679
29	59	58	2.1097372464969
29	60	59	2.0087160084761
29	61	60	1.876156120652
29	62	61	1.8386234882413
29	63	62	2.2993516664104
29	64	63	1.8459222947006
29	65	64	2.3228538313892
29	66	65	1.8757004712267
29	67	66	1.999628549688
29	68	67	2.2630700095878
29	69	68	1.9798474403324
29	70	69	1.9372818212763
29	71	70	1.8550225742329
29	72	71	2.3847397299678
29	73	72	1.8295794064806
29	74	73	2.0743518631084
29	76	74	2.2009680002035
29	77	75	1.6778590032699
29	78	76	2.0068482443346
29	79	77	2.1278931133419
29	80	78	0.973
29	81	79	0.973
29	82	80	0.973
29	83	81	0.973
29	84	82	0.973
29	85	83	0.973
29	86	84	0.973
29	87	85	0.973
32	14	13	2414.9020294819
32	15	14	2411.9226306152
32	16	15	2407.1557433844
32	17	16	2402.1104710221
32	18	17	2395.7699587477
32	19	18	2388.0304223568
32	20	19	2379.4739705084
32	21	20	2370.8941181133
32	22	21	2362.3083183425
32	23	22	2353.7443024665
32	24	23	2345.1618354321
32	25	24	2337.3834647557
32	26	25	2333.9515173009
32	27	26	2339.5326987531
32	28	27	2348.8436283177
32	29	28	2357.9068652218
32	30	29	2368.8949020433
32	31	30	2380.9744917287
32	32	31	2393.0997437357
32	33	32	2405.2300000987
32	34	33	2416.5389993605
32	35	34	2423.9648748492
32	36	35	2430.56996479
32	37	36	2432.1002312365
32	38	37	2433.9006583875
32	39	38	2435.9548571991
32	40	39	2437.9600300988
32	41	40	2438.9495992195
32	42	41	2439.907262638
32	43	42	2440.9178933094
32	44	43	2441.927142262
32	45	44	2442.9368511226
32	46	45	2443.9466651459
32	47	46	2444.9575911418
32	48	47	2445.9693527038
32	49	48	2446.9799539676
32	50	49	2447.9898460564
32	51	50	2449.0001103546
32	52	51	2450.0088045419
32	53	52	2450.2643256367
32	54	53	2449.1496855983
32	55	54	2448.0353468135
32	56	55	2446.9235720329
32	57	56	2445.811877869
32	58	57	2444.700506703
32	59	58	2443.588790617
32	60	59	2442.4763089615
32	61	60	2441.3618977926
32	62	61	2440.2866459092
32	63	62	2439.346241292
32	64	63	2438.5899844988
32	65	64	2436.8961104775
32	66	65	2429.4983228361
32	67	66	2417.5064874004
32	68	67	2403.9323155491
32	69	68	2389.9969792552
32	70	69	2376.0629250986
32	71	70	2362.1324999015
32	72	71	2348.2196035675
32	73	72	2334.2898757878
32	74	73	2320.3710507947
32	76	74	2306.4408490564
32	77	75	2292.5221805866
32	78	76	2278.5906684087
32	79	77	2264.6704978563
32	80	78	2250.7415029905
32	81	79	2236.9346458594
32	82	80	2223.1440515444
32	83	81	2209.637544731
32	84	82	2196.4462333985
32	85	83	2183.7957673909
32	86	84	2174.1070490126
32	87	85	2167.3180400142
33	14	13	1578.4413889889
33	15	14	1579.5354087027
33	16	15	1581.5597135043
33	17	16	1586.6698793434
33	18	17	1593.0919447746
33	19	18	1600.9310288979
33	20	19	1609.5975358374
33	21	20	1618.287744307
33	22	21	1626.9839766491
33	23	22	1635.6581449062
33	24	23	1644.3510016454
33	25	24	1653.7440470643
33	26	25	1665.1168382391
33	27	26	1675.0671622232
33	28	27	1682.9278787784
33	29	28	1691.1013328275
33	30	29	1695.1535969917
33	31	30	1696.8411509823
33	32	31	1698.1231042761
33	33	32	1699.2701010192
33	34	33	1700.3394424198
33	35	34	1700.9750929764
33	36	35	1703.8618464489
33	37	36	1713.6432589432
33	38	37	1725.4909850676
33	39	38	1739.0086577553
33	40	39	1752.7828228604
33	41	40	1766.6724609258
33	42	41	1780.5686573638
33	43	42	1794.4668220142
33	44	43	1808.3459853046
33	45	44	1822.2314732382
33	46	45	1836.1184073668
33	47	46	1850.0206333101
33	48	47	1863.9343499336
33	49	48	1877.8321101721
33	50	49	1891.7201178549
33	51	50	1905.6132441489
33	52	51	1919.4847783232
33	53	52	1933.3785301205
33	54	53	1947.2906859526
33	55	54	1961.1990817506
33	56	55	1975.0754754432
33	57	56	1988.9508629376
33	58	57	2002.8222189955
33	59	58	2016.6978801042
33	60	59	2030.5830965145
33	61	60	2044.4923957605
33	62	61	2058.402248078
33	63	62	2072.296467945
33	64	63	2086.2020105636
33	65	64	2100.0006144699
33	66	65	2111.7010101415
33	67	66	2118.6551978877
33	68	67	2120.7890396183
33	69	68	2120.3183616959
33	70	69	2119.8477270789
33	71	70	2119.3772150325
33	72	71	2118.9072950389
33	73	72	2118.4368065493
33	74	73	2117.9666863102
33	76	74	2117.4961818112
33	77	75	2117.0260668593
33	78	76	2116.5555180991
33	79	77	2116.0853524134
33	80	78	2115.6148886774
33	81	79	2114.0244403584
33	82	80	2112.068827495
33	83	81	2108.891976811
33	84	82	2104.4180982057
33	85	83	2100.1276491527
33	86	84	2095.812883853
33	87	85	2091.8163014511
34	15	14	4.1202440707026
34	16	15	6.098204819389
34	17	16	7.9892263333931
34	18	17	9.9395148638858
34	19	18	11.888312638128
34	20	19	12.214899667107
34	21	20	12.204430835099
34	22	21	12.224366190907
34	23	22	12.210519580803
34	24	23	12.179415699571
34	25	24	12.159758925896
34	26	25	12.13959274378
34	27	26	12.143464836945
34	28	27	12.197705111212
34	29	28	12.182268543871
34	30	29	12.238849889069
34	31	30	12.235605009577
34	32	31	12.23004970376
34	33	32	12.179280876377
34	34	33	9.6876446669724
34	35	34	6.6438289998357
34	36	35	8.8492165823306
34	37	36	10.860397206489
34	38	37	12.910764177675
34	39	38	13.992245385351
34	40	39	13.943547738914
34	41	40	13.916770352069
34	42	41	13.945535122917
34	43	42	13.906703865982
34	44	43	13.929781103753
34	45	44	13.945612282939
34	46	45	13.915959525181
34	47	46	13.967522231955
34	48	47	13.972525620006
34	49	48	13.883536923684
34	50	49	13.909812615521
34	51	50	13.926507747294
34	52	51	13.897951097498
34	53	52	13.93396450304
34	54	53	13.967009024217
34	55	54	13.947614409933
34	56	55	13.993828555658
34	57	56	13.915365449623
34	58	57	13.876728287677
34	59	58	13.918426910553
34	60	59	13.957692671507
34	61	60	13.90009289247
34	62	61	13.990771026358
34	63	62	13.985077120962
34	64	63	13.962056111419
34	65	64	13.973261172024
34	66	65	13.976665152721
34	67	66	13.995758003502
34	68	67	13.879077432866
34	69	68	13.899420192223
34	70	69	13.964884717481
34	71	70	13.997399434138
34	72	71	13.963054893557
34	73	72	13.99507131309
34	74	73	13.959758597296
34	76	74	13.999156328384
34	77	75	13.969890658425
34	78	76	13.980162032277
34	79	77	13.896995161234
34	80	78	13.983461196581
34	81	79	13.873203118846
34	82	80	13.973196173133
34	83	81	13.974863053726
34	84	82	13.879482471305
34	85	83	12.290140953313
34	86	84	9.4076652111322
34	87	85	6.6479709535401
35	16	15	1.9779607486865
35	17	16	1.8910215140041
35	18	17	1.9502885304927
35	19	18	1.9487977742427
35	20	19	0.32658702897847
35	21	20	-0.010468832007609
35	22	21	0.019935355808121
35	23	22	-0.013846610104666
35	24	23	-0.031103881231974
35	25	24	-0.019656773675234
35	26	25	-0.020166182115208
35	27	26	0.0038720931648282
35	28	27	0.054240274266339
35	29	28	-0.015436567340512
35	30	29	0.056581345198211
35	31	30	-0.0032448794925592
35	32	31	-0.0055553058162339
35	33	32	-0.050768827383871
35	34	33	-2.4916362094042
35	35	34	-3.0438156671366
35	36	35	2.2053875824949
35	37	36	2.0111806241586
35	38	37	2.0503669711854
35	39	38	1.0814812076765
35	40	39	-0.048697646437214
35	41	40	-0.026777386844623
35	42	41	0.028764770848211
35	43	42	-0.038831256935373
35	44	43	0.023077237771357
35	45	44	0.015831179185771
35	46	45	-0.02965275775874
35	47	46	0.051562706774567
35	48	47	0.0050033880514082
35	49	48	-0.088988696322776
35	50	49	0.026275691837073
35	51	50	0.016695131773595
35	52	51	-0.028556649796665
35	53	52	0.036013405541889
35	54	53	0.033044521177652
35	55	54	-0.019394614284392
35	56	55	0.046214145724662
35	57	56	-0.078463106034324
35	58	57	-0.038637161946388
35	59	58	0.041698622875845
35	60	59	0.039265760954004
35	61	60	-0.057599779036828
35	62	61	0.090678133887705
35	63	62	-0.0056939053954554
35	64	63	-0.023021009543445
35	65	64	0.011205060605425
35	66	65	0.0034039806970405
35	67	66	0.019092850780579
35	68	67	-0.11668057063594
35	69	68	0.0203427593573
35	70	69	0.065464525257703
35	71	70	0.032514716656879
35	72	71	-0.034344540580641
35	73	72	0.032016419533175
35	74	73	-0.035312715794426
35	76	74	0.039397731088101
35	77	75	-0.029265669959132
35	78	76	0.010271373852158
35	79	77	-0.083166871042923
35	80	78	0.086466035346966
35	81	79	-0.11025807773462
35	82	80	0.099993054287042
35	83	81	0.0016668805922393
35	84	82	-0.095380582420621
35	85	83	-1.589341517992
35	86	84	-2.8824757421808
35	87	85	-2.7596942575921
36	16	15	4.3320714987557
36	17	16	5.183486961616
36	18	17	6.3519610936481
36	19	18	7.4221751260776
36	20	19	2.8290120097271
36	21	20	1.8358789431413
36	22	21	1.9271875182689
36	23	22	1.8264688584841
36	24	23	1.7731360365127
36	25	24	1.805074126771
36	26	25	1.8018815093796
36	27	26	1.8725574894048
36	28	27	2.0255159107798
36	29	28	1.8193676659045
36	30	29	2.0366459836881
36	31	30	1.8598961138504
36	32	31	1.8525922369475
36	33	32	1.7154043192418
36	34	33	0.973
36	35	34	0.973
36	36	35	6.3042465263614
36	37	36	7.0162147605311
36	38	37	8.3113257001554
36	39	38	5.6849490315896
36	40	39	1.8694269918782
36	41	40	1.940528745875
36	42	41	2.1299480592744
36	43	42	1.8991694406835
36	44	43	2.1091372507868
36	45	44	2.0864880630902
36	46	45	1.9308080812489
36	47	46	2.2090898398184
36	48	47	2.0528811368149
36	49	48	1.7292056532406
36	50	49	2.1177127068995
36	51	50	2.0873649665686
36	52	51	1.9327741224938
36	53	52	2.1530281120875
36	54	53	2.1466978352857
36	55	54	1.9682931056067
36	56	55	2.1940726512002
36	57	56	1.7670612526642
36	58	57	1.8970499029483
36	59	58	2.1703787731
36	60	59	2.1665979175254
36	61	60	1.8356851411863
36	62	61	2.3436478038294
36	63	62	2.0181272789861
36	64	63	1.9574993776543
36	65	64	2.0738417857687
36	66	65	2.0479224526271
36	67	66	2.1028124220468
36	68	67	1.6362226447506
36	69	68	2.096714827559
36	70	69	2.2555743425322
36	71	70	2.1482652379368
36	72	71	1.9194912088098
36	73	72	2.1463276308042
36	74	73	1.9159241804067
36	76	74	2.1716810577018
36	77	75	1.9372331757794
36	78	76	2.0714211235731
36	79	77	1.7497841862042
36	80	78	2.3285442705306
36	81	79	1.6572642212753
36	82	80	2.3728321024286
36	83	81	2.0418860394079
36	84	82	1.7074999254715
36	85	83	0.973
36	86	84	0.973
36	87	85	0.973
39	17	16	2414.866372544
39	18	17	2411.9174920589
39	19	18	2407.1873548935
39	20	19	2402.1033929951
39	21	20	2395.6770685576
39	22	21	2387.9239549194
39	23	22	2378.7440047435
39	24	23	2368.9560721758
39	25	24	2359.1622850237
39	26	25	2349.3790714815
39	27	26	2340.0066479368
39	28	27	2334.2982135796
39	29	28	2338.9199148722
39	30	29	2349.5391707111
39	31	30	2359.6277409974
39	32	31	2372.2720176682
39	33	32	2385.1845950773
39	34	33	2397.5464889811
39	35	34	2407.0874095275
39	36	35	2415.9651438065
39	37	36	2423.6468382971
39	38	37	2430.569692316
39	39	38	2432.1309614525
39	40	39	2433.9421556705
39	41	40	2436.0122354535
39	42	41	2438.0027148192
39	43	42	2438.9731157059
39	44	43	2439.9357414143
39	45	44	2440.9458166434
39	46	45	2441.9557380938
39	47	46	2442.9663615734
39	48	47	2443.9771156043
39	49	48	2444.9876268776
39	50	49	2445.9974210534
39	51	50	2447.0080314889
39	52	51	2448.0195445062
39	53	52	2449.030052055
39	54	53	2450.0410207048
39	55	54	2450.2288519962
39	56	55	2449.1151891185
39	57	56	2448.0039409347
39	58	57	2446.8928401147
39	59	58	2445.7798170304
39	60	59	2444.6657750639
39	61	60	2443.5518927944
39	62	61	2442.4392427746
39	63	62	2441.3252988735
39	64	63	2440.2579520618
39	65	64	2439.3172156385
39	66	65	2438.5948207099
39	67	66	2436.8218629005
39	68	67	2429.2514369139
39	69	68	2417.1713261784
39	70	69	2403.5744165034
39	71	70	2389.6505314836
39	72	71	2375.7065014641
39	73	72	2361.7738953516
39	74	73	2347.8218643049
39	76	74	2333.8907725617
39	77	75	2319.9862987669
39	78	76	2306.0487085514
39	79	77	2292.1137497009
39	80	78	2278.1829358424
39	81	79	2264.2453535795
39	82	80	2250.3043129485
39	83	81	2236.4693975307
39	84	82	2222.6757219044
39	85	83	2209.1942698441
39	86	84	2196.5131875183
39	87	85	2185.9437322411
40	17	16	1578.4544820301
40	18	17	1579.5372955538
40	19	18	1581.5276954006
40	20	19	1586.6770484103
40	21	20	1593.1860297397
40	22	21	1601.0388657451
40	23	22	1610.3368905932
40	24	23	1620.2507178467
40	25	24	1630.1704749865
40	26	25	1640.0795225166
40	27	26	1650.3859643145
40	28	27	1662.6340421
40	29	28	1674.572302388
40	30	29	1683.5551363304
40	31	30	1692.6532617053
40	32	31	1695.6583691202
40	33	32	1697.3422472356
40	34	33	1698.5435737334
40	35	34	1699.4457314843
40	36	35	1700.2851805454
40	37	36	1700.9566766052
40	38	37	1703.8610356729
40	39	38	1713.8454793887
40	40	39	1725.76405829
40	41	40	1739.3862358453
40	42	41	1753.1711701192
40	43	42	1767.0712080905
40	44	43	1780.960296697
40	45	44	1794.85082292
40	46	45	1808.7392343832
40	47	46	1822.6373001309
40	48	47	1836.5371612161
40	49	48	1850.4336839067
40	50	49	1864.3203450916
40	51	50	1878.2182314573
40	52	51	1892.1285301028
40	53	52	1906.0250015734
40	54	53	1919.9278140916
40	55	54	1933.8212872399
40	56	55	1947.7212468395
40	57	56	1961.5910679214
40	58	57	1975.4590497119
40	59	58	1989.3510238556
40	60	59	2003.2557149744
40	61	60	2017.1584128682
40	62	61	2031.0457306849
40	63	62	2044.9491978213
40	64	63	2058.8261917895
40	65	64	2072.7253140016
40	66	65	2086.6147005763
40	67	66	2100.3941266276
40	68	67	2112.0046593091
40	69	68	2118.8050185973
40	70	69	2120.7769512711
40	71	70	2120.306660125
40	72	71	2119.8356885649
40	73	72	2119.3651028564
40	74	73	2118.8938610544
40	76	74	2118.423326496
40	77	75	2117.9536909806
40	78	76	2117.4829369299
40	79	77	2117.0122717563
40	80	78	2116.5417465828
40	81	79	2116.0709928004
40	82	80	2115.6001222096
40	83	81	2113.9584645499
40	84	82	2112.0024147322
40	85	83	2108.7416386092
40	86	84	2104.440805926
40	87	85	2100.8561388189
41	18	17	4.11254450365
41	19	18	6.0975231633921
41	20	19	8.1241239797909
41	21	20	10.018434339895
41	22	21	11.94044197294
41	23	22	13.966010854098
41	24	23	13.99429374554
41	25	24	13.992908905046
41	26	25	13.889738958394
41	27	26	13.996094578244
41	28	27	13.943261206169
41	29	28	13.961094655516
41	30	29	13.828451053
41	31	30	13.435815226612
41	32	31	13.161572458353
41	33	32	12.955391603935
41	34	33	11.268225475697
41	35	34	8.5051443401138
41	36	35	9.3430507586011
41	37	36	6.9081336921018
41	38	37	9.1321907297087
41	39	38	10.970896498198
41	40	39	12.982570952501
41	41	40	13.992697958478
41	42	41	13.936582251703
41	43	42	13.977668084782
41	44	43	13.986179260183
41	45	44	13.884867181559
41	46	45	13.927137885792
41	47	46	13.910710662541
41	48	47	13.909766360957
41	49	48	13.940070941378
41	50	49	13.877076953631
41	51	50	13.90827997843
41	52	51	13.954862964205
41	53	52	13.893197995736
41	54	53	13.963183217549
41	55	54	13.893721483571
41	56	55	13.88568516843
41	57	56	13.927406547926
41	58	57	13.918185825639
41	59	58	13.942741125419
41	60	59	13.888825567171
41	61	60	13.956811681101
41	62	61	13.967852384013
41	63	62	13.917130999181
41	64	63	13.908419855016
41	65	64	13.917908439364
41	66	65	13.898765254379
41	67	66	13.929094264333
41	68	67	13.988442988638
41	69	68	13.963501574658
41	70	69	13.904512311171
41	71	70	13.881385968712
41	72	71	13.955823229789
41	73	72	13.91319160128
41	74	73	13.978148939102
41	76	74	13.952216081487
41	77	75	13.876740762778
41	78	76	13.930089543043
41	79	77	13.916144249656
41	80	78	13.998410794288
41	81	79	13.980069159993
41	82	80	13.95930730181
41	83	81	13.968128457202
41	84	82	13.948675276458
41	85	83	13.962962557652
41	86	84	12.38619589941
41	87	85	10.177438578864
42	19	18	1.984978659742
42	20	19	2.0266008163989
42	21	20	1.8943103601038
42	22	21	1.9220076330448
42	23	22	2.0255688811579
42	24	23	0.028282891442068
42	25	24	-0.0013848404935555
42	26	25	-0.10316994665191
42	27	26	0.10635561984964
42	28	27	-0.05283337207511
42	29	28	0.017833449346945
42	30	29	-0.13264360251538
42	31	30	-0.39263582638861
42	32	31	-0.27424276825864
42	33	32	-0.20618085441804
42	34	33	-1.6871661282383
42	35	34	-2.7630811355829
42	36	35	0.83790641848734
42	37	36	-2.4349170664993
42	38	37	2.2240570376068
42	39	38	1.8387057684897
42	40	39	2.011674454303
42	41	40	1.0101270059768
42	42	41	-0.056115706774872
42	43	42	0.041085833078251
42	44	43	0.0085111754015088
42	45	44	-0.10131207862403
42	46	45	0.042270704233088
42	47	46	-0.016427223251666
42	48	47	-0.00094430158380554
42	49	48	0.030304580421653
42	50	49	-0.062993987747468
42	51	50	0.031203024799471
42	52	51	0.046582985774148
42	53	52	-0.061664968468248
42	54	53	0.069985221812967
42	55	54	-0.069461733978242
42	56	55	-0.0080363151407798
42	57	56	0.041721379496158
42	58	57	-0.009220722287429
42	59	58	0.024555299780332
42	60	59	-0.053915558247827
42	61	60	0.067986113929656
42	62	61	0.01104070291156
42	63	62	-0.050721384831705
42	64	63	-0.0087111441651349
42	65	64	0.0094885843480004
42	66	65	-0.01914318498457
42	67	66	0.030329009953421
42	68	67	0.059348724305165
42	69	68	-0.024941413979978
42	70	69	-0.058989263486584
42	71	70	-0.023126342459582
42	72	71	0.07443726107711
42	73	72	-0.042631628508678
42	74	73	0.064957337821832
42	76	74	-0.025932857615407
42	77	75	-0.075475318708923
42	78	76	0.053348780265079
42	79	77	-0.013945293386932
42	80	78	0.082266544632148
42	81	79	-0.018341634294485
42	82	80	-0.02076185818296
42	83	81	0.0088211553916349
42	84	82	-0.019453180744312
42	85	83	0.014287281194701
42	86	84	-1.5767666582426
42	87	85	-2.2087573205454
43	19	18	4.3420194955082
43	20	19	5.5193514834883
43	21	20	6.2598837528783
43	22	21	7.3741311479677
43	23	22	8.8530434321966
43	24	23	2.13365012742
43	25	24	2.0334505025289
43	26	25	1.6822325806597
43	27	26	2.3971909293526
43	28	27	1.855503707612
43	29	28	2.0948662776171
43	30	29	1.5793119203646
43	31	30	0.973
43	32	31	0.973
43	33	32	1.2920943242185
43	34	33	0.973
43	35	34	0.973
43	36	35	3.5227441887176
43	37	36	0.973
43	38	37	6.5157259570649
43	39	38	6.6227313860438
43	40	39	8.23254663462
43	41	40	5.4444898698147
43	42	41	1.8438824401449
43	43	42	2.1749617238466
43	44	43	2.0661193061513
43	45	44	1.6880752085194
43	46	45	2.1732746516206
43	47	46	1.9746491499881
43	48	47	2.0264593789898
43	49	48	2.1345252785117
43	50	49	1.8156237109116
43	51	50	2.1340627994298
43	52	51	2.1908906066732
43	53	52	1.8214679161102
43	54	53	2.2705861872936
43	55	54	1.7954068062379
43	56	55	2.0002810933209
43	57	56	2.1714609797662
43	58	57	1.999553894506
43	59	58	2.1154986829051
43	60	59	1.8470270282863
43	61	60	2.2631030576132
43	62	61	2.0727204260443
43	63	62	1.8602543209442
43	64	63	2.0002886298611
43	65	64	2.062281292827
43	66	65	1.964382743041
43	67	66	2.133406923581
43	68	67	2.237740187174
43	69	68	1.9511766336835
43	70	69	1.8314175593046
43	71	70	1.9493699794006
43	72	71	2.2846833100323
43	73	72	1.8870266347629
43	74	73	2.2554324657204
43	76	74	1.9467570144346
43	77	75	1.7738534084078
43	78	76	2.2107965887972
43	79	77	1.9835051352325
43	80	78	2.3162204831367
43	81	79	1.9750085314323
43	82	80	1.9648337724802
43	83	81	2.0652777009624
43	84	82	1.968199643286
43	85	83	2.0831322075699
43	86	84	0.973
43	87	85	0.973
46	20	19	2414.8588002162
46	21	20	2411.8128147094
46	22	21	2407.1980394585
46	23	22	2402.4260893827
46	24	23	2396.4703598532
46	25	24	2389.2222769874
46	26	25	2380.6475561669
46	27	26	2371.4676481852
46	28	27	2362.2855005591
46	29	28	2353.1016212452
46	30	29	2343.9169744599
46	31	30	2335.7595052277
46	32	31	2334.0762982215
46	33	32	2342.9453472749
46	34	33	2352.76259233
46	35	34	2362.8956962236
46	36	35	2375.8172182324
46	37	36	2388.78688367
46	38	37	2401.77180531
46	39	38	2414.0995356394
46	40	39	2422.4112137227
46	41	40	2429.7482532499
46	42	41	2431.8187449237
46	43	42	2433.586401238
46	44	43	2435.6334269353
46	45	44	2437.7252028376
46	46	45	2438.8311471371
46	47	46	2439.7531043864
46	48	47	2440.76243059
46	49	48	2441.7733501189
46	50	49	2442.7835869561
46	51	50	2443.7948260139
46	52	51	2444.8052462114
46	53	52	2445.8169800343
46	54	53	2446.8271613391
46	55	54	2447.8370222849
46	56	55	2448.8480540466
46	57	56	2449.8584953059
46	58	57	2450.4290832727
46	59	58	2449.3166641626
46	60	59	2448.2022677673
46	61	60	2447.0881994952
46	62	61	2445.975126542
46	63	62	2444.8621464373
46	64	63	2443.7468582232
46	65	64	2442.6331334664
46	66	65	2441.5198089096
46	67	66	2440.4206098042
46	68	67	2439.48021689
46	69	68	2438.615223677
46	70	69	2437.2646480374
46	71	70	2430.7624445829
46	72	71	2419.3705019067
46	73	72	2405.949528266
46	74	73	2392.0166210895
46	76	74	2378.1047973867
46	77	75	2364.1759740571
46	78	76	2350.2423988947
46	79	77	2336.3108012374
46	80	78	2322.3839084835
46	81	79	2308.4493034976
46	82	80	2294.5072965559
46	83	81	2280.5868063405
46	84	82	2266.6453797651
46	85	83	2252.7328223018
46	86	84	2238.8918546218
46	87	85	2225.104168434
47	20	19	1578.4572625495
47	21	20	1579.5757325301
47	22	21	1581.5168734081
47	23	22	1586.3502014261
47	24	23	1592.3825349454
47	25	24	1599.723844354
47	26	25	1608.4088552454
47	27	26	1617.706837357
47	28	27	1627.0070879199
47	29	28	1636.3090924444
47	30	29	1645.6118743112
47	31	30	1655.8229680164
47	32	31	1668.6056630043
47	33	32	1677.823081133
47	34	33	1686.4620986842
47	35	34	1694.2569051897
47	36	35	1696.18826464
47	37	36	1697.7152945558
47	38	37	1698.9431056092
47	39	38	1700.1087748343
47	40	39	1700.8851259621
47	41	40	1702.3336147228
47	42	41	1711.7909358749
47	43	42	1723.4230132317
47	44	43	1736.8934831806
47	45	44	1750.6584322331
47	46	45	1764.5366218155
47	47	46	1778.4486774122
47	48	47	1792.3289030567
47	49	48	1806.2310400661
47	50	49	1820.1237887191
47	51	50	1834.0303198798
47	52	51	1847.9255900979
47	53	52	1861.8389252573
47	54	53	1875.7309102286
47	55	54	1889.6184896333
47	56	55	1903.5221700659
47	57	56	1917.4177299244
47	58	57	1931.3221407672
47	59	58	1945.2065765299
47	60	59	1959.1156913824
47	61	60	1973.0207108287
47	62	61	1986.9133074023
47	63	62	2000.804745107
47	64	63	2014.7249910161
47	65	64	2028.6257229457
47	66	65	2042.5214598598
47	67	66	2056.4229683327
47	68	67	2070.3170152921
47	69	68	2084.2193199703
47	70	69	2098.0473654019
47	71	70	2110.1462454442
47	72	71	2117.8219631426
47	73	72	2120.8571727062
47	74	73	2120.3865768285
47	76	74	2119.9166930644
47	77	75	2119.4462351231
47	78	76	2118.9756166842
47	79	77	2118.5050650379
47	80	78	2118.0346723031
47	81	79	2117.5640190812
47	82	80	2117.0931158522
47	83	81	2116.6229393687
47	84	82	2116.1520557413
47	85	83	2115.6821471937
47	86	84	2114.3019876881
47	87	85	2112.3467872199
48	21	20	4.067372106413
48	22	21	5.8844240154271
48	23	22	7.537838140674
48	24	23	9.3614518548586
48	25	24	11.131813735405
48	26	25	13.05514560389
48	27	26	13.056851907321
48	28	27	13.088858415996
48	29	28	13.09768262688
48	30	29	13.007015683883
48	31	30	13.0850400788
48	32	31	13.080523499781
48	33	32	13.116974256075
48	34	33	13.130628270213
48	35	34	13.076873808132
48	36	35	13.089925677268
48	37	36	13.033893938239
48	38	37	13.01959743675
48	39	38	10.823751151863
48	40	39	6.3237511518625
48	41	40	8.6044372296547
48	42	41	10.730199524991
48	43	42	12.674376694845
48	44	43	13.986021694564
48	45	44	13.889535133126
48	46	45	13.959654321973
48	47	46	13.972242008243
48	48	47	13.884239303807
48	49	48	13.920426942427
48	50	49	13.887057281358
48	51	50	13.924890077722
48	52	51	13.888422596853
48	53	52	13.973124842362
48	54	53	13.979389482583
48	55	54	13.948198468271
48	56	55	13.944161438567
48	57	56	13.928642164022
48	58	57	13.919632288448
48	59	58	13.893341971666
48	60	59	13.941880325
48	61	60	13.998108282317
48	62	61	13.878701872779
48	63	62	13.982008344322
48	64	63	13.95228849458
48	65	64	13.945977008874
48	66	65	13.883390566299
48	67	66	13.971294902724
48	68	67	13.952113668735
48	69	68	13.943578180606
48	70	69	13.980317651937
48	71	70	13.967857702158
48	72	71	13.87017407299
48	73	72	13.907431576322
48	74	73	13.990516319459
48	76	74	13.891874899538
48	77	75	13.937335884271
48	78	76	13.921820710613
48	79	77	13.947281930207
48	80	78	13.958241502543
48	81	79	13.924777132559
48	82	80	13.993273811741
48	83	81	13.884921522941
48	84	82	13.906429463343
48	85	83	13.901499413527
48	86	84	13.898189382956
48	87	85	13.948864056782
49	22	21	1.8170519090141
49	23	22	1.6534141252469
49	24	23	1.8236137141846
49	25	24	1.770361880546
49	26	25	1.9233318684858
49	27	26	0.0017063034302556
49	28	27	0.032006508675405
49	29	28	0.0088242108840486
49	30	29	-0.090666942996904
49	31	30	0.078024394917302
49	32	31	-0.0045165790198354
49	33	32	0.036450756294652
49	34	33	0.013654014137574
49	35	34	-0.053754462080542
49	36	35	0.013051869135817
49	37	36	-0.056031739029569
49	38	37	-0.014296501488424
49	39	38	-2.1958462848876
49	40	39	-4.5
49	41	40	2.2806860777922
49	42	41	2.1257622953365
49	43	42	1.9441771698534
49	44	43	1.3116449997197
49	45	44	-0.09648656143807
49	46	45	0.07011918884702
49	47	46	0.012587686269544
49	48	47	-0.088002704435493
49	49	48	0.036187638619449
49	50	49	-0.03336966106901
49	51	50	0.037832796364091
49	52	51	-0.036467480869032
49	53	52	0.084702245509252
49	54	53	0.0062646402209054
49	55	54	-0.031191014312208
49	56	55	-0.0040370297036123
49	57	56	-0.015519274545367
49	58	57	-0.0090098755736836
49	59	58	-0.026290316781962
49	60	59	0.048538353333717
49	61	60	0.056227957317605
49	62	61	-0.11940640953835
49	63	62	0.10330647154246
49	64	63	-0.029719849741086
49	65	64	-0.0063114857068296
49	66	65	-0.062586442574393
49	67	66	0.087904336424545
49	68	67	-0.019181233989075
49	69	68	-0.0085354881291284
49	70	69	0.03673947133124
49	71	70	-0.01245994977886
49	72	71	-0.097683629167731
49	73	72	0.03725750333164
49	74	73	0.083084743137006
49	76	74	-0.098641419920606
49	77	75	0.04546098473249
49	78	76	-0.015515173657331
49	79	77	0.025461219593417
49	80	78	0.010959572335704
49	81	79	-0.033464369983411
49	82	80	0.068496679181699
49	83	81	-0.10835228879936
49	84	82	0.02150794040179
49	85	83	-0.0049300498166129
49	86	84	-0.0033100305707183
49	87	85	0.050674673826434
50	22	21	3.9895326670072
50	23	22	4.516813990543
50	24	23	5.7516577127992
50	25	24	6.5238969694044
50	26	25	7.99669039818
50	27	26	1.9508625454287
50	28	27	2.0495150291555
50	29	28	1.9772521331911
50	30	29	1.6565307702809
50	31	30	2.1942373017963
50	32	31	1.9335175762632
50	33	32	2.066475094368
50	34	33	1.9957655815399
50	35	34	1.7779979770396
50	36	35	1.9898297500887
50	37	36	1.7672979147902
50	38	37	1.8970825701523
50	39	38	0.973
50	40	39	0.973
50	41	40	6.3133160572567
50	42	41	7.2389285551568
50	43	42	7.8480335715719
50	44	43	6.4584864032204
50	45	44	1.704588734769
50	46	45	2.2706165053704
50	47	46	2.0783904543616
50	48	47	1.7325612239294
50	49	48	2.152114369954
50	50	49	1.9156327972978
50	51	50	2.1581293389031
50	52	51	1.9053919146671
50	53	52	2.321330931143
50	54	53	2.0578412833151
50	55	54	1.9286962548706
50	56	55	2.0195663816392
50	57	56	1.9794538530861
50	58	57	2.0004054330977
50	59	58	1.93992520771
50	60	59	2.1959885866008
50	61	60	2.2283411417848
50	62	61	1.6270777435242
50	63	62	2.3851117990842
50	64	63	1.9340301948742
50	65	64	2.0121056433488
50	66	65	1.817533138576
50	67	66	2.3318879969052
50	68	67	1.9694492494068
50	69	68	2.0043907541876
50	70	69	2.1606152560182
50	71	70	1.9936118250746
50	72	71	1.6990698160563
50	73	72	2.1542627543164
50	74	73	2.3180133884777
50	76	74	1.6975579736318
50	77	75	2.185134912585
50	78	76	1.9787974726638
50	79	77	2.1190343839391
50	80	78	2.071439007203
50	81	79	1.9188526777571
50	82	80	2.2691547542171
50	83	81	1.6645209900012
50	84	82	2.101367837306
50	85	83	2.0122661472516
50	86	84	2.0173593662185
50	87	85	2.2039651867231
53	23	22	2414.8618358603
53	24	23	2411.8580234927
53	25	24	2407.0972548373
53	26	25	2401.9344958061
53	27	26	2395.4312230857
53	28	27	2388.0170109875
53	29	28	2380.6060603055
53	30	29	2373.2033337876
53	31	30	2365.7963568316
53	32	31	2358.3682105249
53	33	32	2350.9534404605
53	34	33	2343.5448953115
53	35	34	2336.9855603951
53	36	35	2334.0502360606
53	37	36	2337.4740960324
53	38	37	2345.6605594726
53	39	38	2353.4900798146
53	40	39	2361.3994502947
53	41	40	2371.829777738
53	42	41	2382.2791880094
53	43	42	2392.7914419929
53	44	43	2403.2877247381
53	45	44	2413.7992179208
53	46	45	2422.2304528549
53	47	46	2429.7020295225
53	48	47	2431.7900968341
[...]
131	76	74	1697.5233228775
131	77	75	1698.4676624276
131	78	76	1699.3660529125
131	79	77	1700.118624486
131	80	78	1700.8733436894
131	81	79	1702.281437018
131	82	80	1711.6168504301
131	83	81	1723.1584027745
131	84	82	1736.0252221581
131	85	83	1748.7126401113
131	86	84	1761.2773214784
131	87	85	1773.7451031953
132	57	56	4.0700236807532
132	58	57	6.0857060878515
132	59	58	7.9857787182835
132	60	59	9.7256086628396
132	61	60	11.743935605616
132	62	61	12.951264974338
132	63	62	12.249710391797
132	64	63	11.653143393494
132	65	64	11.189994397362
132	66	65	10.99862105502
132	67	66	10.751166266552
132	68	67	10.553981643097
132	69	68	10.406313443458
132	70	69	10.229119654607
132	71	70	10.209485868909
132	72	71	10.172228175375
132	73	72	10.034751266615
132	74	73	10.149261518176
132	76	74	10.036876275206
132	77	75	9.9854467519371
132	78	76	8.4319465278148
132	79	77	8.4202915922809
132	80	78	6.4529674225618
132	81	79	8.732235948403
132	82	80	10.516195349045
132	83	81	12.519161548686
132	84	82	13.050162045497
132	85	83	12.704726504436
132	86	84	12.564977579459
132	87	85	12.451240182694
133	58	57	2.0156824070984
133	59	58	1.900072630432
133	60	59	1.7398299445561
133	61	60	2.0183269427763
133	62	61	1.2073293687219
133	63	62	-0.7015545825413
133	64	63	-0.59656699830274
133	65	64	-0.46314899613202
133	66	65	-0.1913733423417
133	67	66	-0.24745478846843
133	68	67	-0.19718462345486
133	69	68	-0.14766819963837
133	70	69	-0.17719378885115
133	71	70	-0.019633785698561
133	72	71	-0.037257693534031
133	73	72	-0.13747690875959
133	74	73	0.11451025156112
133	76	74	-0.11238524297024
133	77	75	-0.051429523268968
133	78	76	-1.5535002241222
133	79	77	-0.011654935533924
133	80	78	-1.9673241697191
133	81	79	2.2792685258412
133	82	80	1.7839594006422
133	83	81	2.0029661996406
133	84	82	0.53100049681128
133	85	83	-0.34543554106108
133	86	84	-0.13974892497736
133	87	85	-0.11373739676485
134	58	57	4.3807066726632
134	59	58	5.1991080184596
134	60	59	5.7420827504996
134	61	60	7.5386032280172
134	62	61	5.7038340681536
134	63	62	0.973
134	64	63	0.973
134	65	64	0.973
134	66	65	1.2562164016128
134	67	66	0.973
134	68	67	1.226181063665
134	69	68	1.3457633393573
134	70	69	1.2655066646806
134	71	70	1.6525039114162
134	72	71	1.6066054225412
134	73	72	1.3549509899294
134	74	73	1.9762667616655
134	76	74	1.4157363178153
134	77	75	1.5599093235437
134	78	76	0.973
134	79	77	1.5476947073283
134	80	78	0.973
134	81	79	6.3894031811753
134	82	80	6.2460091640368
134	83	81	7.9383681111683
134	84	82	3.6148985373374
134	85	83	0.973
134	86	84	1.4762083198005
134	87	85	1.5476747586476
137	59	58	2414.8593783923
137	60	59	2411.9484889912
137	61	60	2407.4094249712
137	62	61	2402.6937210527
137	63	62	2396.641597031
137	64	63	2389.214746958
137	65	64	2380.4731529073
137	66	65	2371.3664398775
137	67	66	2362.2565296899
137	68	67	2353.1406513922
137	69	68	2344.0201873158
137	70	69	2335.9162889186
137	71	70	2334.0026215508
137	72	71	2341.8964640438
137	73	72	2350.7089878173
137	74	73	2359.0745827054
137	76	74	2369.2241882929
137	77	75	2379.8224714727
137	78	76	2390.052874574
137	79	77	2398.9127763144
137	80	78	2407.6904533723
137	81	79	2415.8207777276
137	82	80	2423.3777550816
137	83	81	2430.2822175799
137	84	82	2431.9141135069
137	85	83	2433.6302585265
137	86	84	2435.6223347961
137	87	85	2437.7154563254
138	59	58	1578.4570502462
138	60	59	1579.5259136427
138	61	60	1581.3027690053
138	62	61	1586.0791274142
138	63	62	1592.209095275
138	64	63	1599.7314712359
138	65	64	1608.5855017202
138	66	65	1617.8093474293
138	67	66	1627.0364314197
138	68	67	1636.2695602821
138	69	68	1645.5073339073
138	70	69	1655.6222604895
138	71	70	1668.1383424075
138	72	71	1676.9760448467
138	73	72	1684.6101066973
138	74	73	1692.1544097029
138	76	74	1695.2028148863
138	77	75	1696.7040348621
138	78	76	1697.8350024503
138	79	77	1698.6727653248
138	80	78	1699.5027533071
138	81	79	1700.2715297686
138	82	80	1700.9410949489
138	83	81	1703.0056230435
138	84	82	1712.4185096454
138	85	83	1723.711616491
138	86	84	1736.8204912646
138	87	85	1750.594295227
139	60	59	3.8447639940612
139	61	60	5.6791266903889
139	62	61	7.640854550414
139	63	62	9.4405025505742
139	64	63	11.421963884828
139	65	64	13.012454428178
139	66	65	12.984555944548
139	67	66	12.996037343581
139	68	67	13.007021344934
139	69	68	12.961201979526
139	70	69	13.031341787711
139	71	70	12.558655270179
139	72	71	12.011429201822
139	73	72	11.406662650132
139	74	73	11.155540687501
139	76	74	10.913499009915
139	77	75	10.697260499871
139	78	76	9.547423207644
139	79	77	8.9678760146305
139	80	78	7.8922420065379
139	81	79	8.7546693671926
139	82	80	6.3056376796376
139	83	81	8.4825653085552
139	84	82	10.456606999305
139	85	83	12.205991717509
139	86	84	13.873096937549
139	87	85	13.95880981739
140	61	60	1.8343626963277
140	62	61	1.9617278600251
140	63	62	1.7996480001602
140	64	63	1.9814613342541
140	65	64	1.5904905433498
140	66	65	-0.02789848363027
140	67	66	0.011481399033219
140	68	67	0.010984001352917
140	69	68	-0.045819365407805
140	70	69	0.070139808184468
140	71	70	-0.47268651753197
140	72	71	-0.54722606835658
140	73	72	-0.60476655169036
140	74	73	-0.25112196263095
140	76	74	-0.24204167758592
140	77	75	-0.21623851004382
140	78	76	-1.1498372922271
140	79	77	-0.57954719301356
140	80	78	-1.0756340080926
140	81	79	0.86242736065472
140	82	80	-2.449031687555
140	83	81	2.1769276289176
140	84	82	1.9740416907496
140	85	83	1.7493847182044
140	86	84	1.6671052200397
140	87	85	0.085712879841488
141	61	60	3.911518067875
141	62	61	5.1322202484559
141	63	62	5.7376235105578
141	64	63	7.2530068360154
141	65	64	6.9290418337592
141	66	65	1.8513067873371
141	67	66	1.9756599604732
141	68	67	1.9751756017964
141	69	68	1.7932694070454
141	70	69	2.1633376069594
141	71	70	0.973
141	72	71	0.973
141	73	72	0.973
141	74	73	0.973
141	76	74	0.973
141	77	75	0.973
141	78	76	0.973
141	79	77	0.973
141	80	78	0.973
141	81	79	3.4139252129427
141	82	80	0.973
141	83	81	6.0258720677783
141	84	82	6.6947149875936
141	85	83	7.0128773856604
141	86	84	7.5997217878722
141	87	85	2.3229742071641
144	62	61	2414.8844513154
144	63	62	2411.952405891
144	64	63	2407.1483753425
144	65	64	2402.0327751596
144	66	65	2395.5605150873
144	67	66	2387.7034512246
144	68	67	2378.4408955037
144	69	68	2368.6464148381
144	70	69	2358.85036586
144	71	70	2349.0623008312
144	72	71	2339.7408343487
144	73	72	2334.2278371524
144	74	73	2339.2613398405
144	76	74	2349.4793962726
144	77	75	2358.8944286715
144	78	76	2370.0420611105
144	79	77	2380.5598797015
144	80	78	2390.6512030683
144	81	79	2399.8360432902
144	82	80	2408.5724612344
144	83	81	2416.656257931
144	84	82	2423.9717932529
144	85	83	2430.5616335737
144	86	84	2432.0719191255
144	87	85	2433.8209236133
145	62	61	1578.4478435991
145	63	62	1579.5244753771
145	64	63	1581.5671763159
145	65	64	1586.7485745484
145	66	65	1593.304082348
145	67	66	1601.2622056101
145	68	67	1610.6438984955
145	69	68	1620.5643580696
145	70	69	1630.4864061279
145	71	70	1640.400367545
145	72	71	1650.7262470797
145	73	72	1663.0578762544
145	74	73	1674.8480235832
145	76	74	1683.5012302445
145	77	75	1691.9919422828
145	78	76	1695.3250610419
145	79	77	1696.791802898
145	80	78	1697.8915784042
145	81	79	1698.7600663826
145	82	80	1699.5861530406
145	83	81	1700.3505300013
145	84	82	1700.9754935959
145	85	83	1703.8370560007
145	86	84	1713.4569508564
145	87	85	1724.9662897103
146	63	62	4.018615917157
146	64	63	6.1678624366304
146	65	64	8.1947875515009
146	66	65	10.095725917275
146	67	66	12.087148355938
146	68	67	13.916756611222
146	69	68	13.873082711415
146	70	69	13.970749160051
146	71	70	13.922085633471
146	72	71	13.919626296114
146	73	72	13.89674285165
146	74	73	13.859240966135
146	76	74	13.009320540587
146	77	75	12.341020529206
146	78	76	11.39258892053
146	79	77	10.34088821589
146	80	78	9.4992764083581
146	81	79	9.3068073102467
146	82	80	7.5435747462808
146	83	81	8.5780964200195
146	84	82	6.6106557730338
146	85	83	8.7437057506395
146	86	84	10.629202504762
146	87	85	12.413122480296
147	64	63	2.1492465194734
147	65	64	2.0269251148705
147	66	65	1.9009383657738
147	67	66	1.9914224386634
147	68	67	1.8296082552838
147	69	68	-0.043673899807034
147	70	69	0.097666448636446
147	71	70	-0.048663526580203
147	72	71	-0.0024593373574326
147	73	72	-0.022883444463368
147	74	73	-0.037501885515741
147	76	74	-0.84992042554721
147	77	75	-0.66830001138163
147	78	76	-0.94843160867563
147	79	77	-1.0517007046406
147	80	78	-0.84161180753145
147	81	79	-0.1924690981114
147	82	80	-1.7632325639659
147	83	81	1.0345216737386
147	84	82	-1.9674406469857
147	85	83	2.1330499776057
147	86	84	1.8854967541224
147	87	85	1.7839199755341
148	64	63	4.6239714702746
148	65	64	5.559217427776
148	66	65	6.3171910975532
148	67	66	7.6572369962964
148	68	67	8.1667304192483
148	69	68	1.8798735915629
148	70	69	2.3646891363214
148	71	70	1.867603388115
148	72	71	2.0223794668753
148	73	72	1.9516596977621
148	74	73	1.899228999223
148	76	74	0.973
148	77	75	0.973
148	78	76	0.973
148	79	77	0.973
148	80	78	0.973
148	81	79	0.973
148	82	80	0.973
148	83	81	3.7208063229356
148	84	82	0.973
148	85	83	6.0883830275485
148	86	84	6.5636490633973
148	87	85	7.2222087256798
151	65	64	2414.8420826617
151	66	65	2411.6921621242
151	67	66	2406.8077182934
151	68	67	2401.6811510426
151	69	68	2395.3062389906
151	70	69	2387.5620720242
151	71	70	2378.9877757882
151	72	71	2370.4018736532
151	73	72	2361.8166576423
151	74	73	2353.2261479631
151	76	74	2344.6320958694
151	77	75	2336.9086602319
151	78	76	2333.8928241752
151	79	77	2340.2183889988
151	80	78	2349.5208551378
151	81	79	2358.6060326288
151	82	80	2369.8626475015
151	83	81	2381.9535231512
151	84	82	2394.1080846568
151	85	83	2406.2894188575
151	86	84	2417.329714359
151	87	85	2424.5701100802
152	65	64	1578.4634011481
152	66	65	1579.6200355301
152	67	66	1581.9122149758
152	68	67	1587.1047213376
152	69	68	1593.5616290038
152	70	69	1601.4054032629
152	71	70	1610.0899841087
152	72	71	1618.7863201313
152	73	72	1627.4819612047
152	74	73	1636.1829640344
152	76	74	1644.887554843
152	77	75	1654.3518707538
152	78	76	1665.9483241867
152	79	77	1675.6208983324
152	80	78	1683.5386188878
152	81	79	1691.731859507
152	82	80	1695.2982443739
152	83	81	1696.9576775702
152	84	82	1698.2184496438
152	85	83	1699.3702761382
152	86	84	1700.4142098036
152	87	85	1701.0101400055
153	66	65	4.2842987557744
153	67	66	6.3335589328256
153	68	67	8.0892261283855
153	69	68	9.909994260104
153	70	69	11.839966300701
153	71	70	12.266388253015
153	72	71	12.295008240868
153	73	72	12.237824487669
153	74	73	12.208680238211
153	76	74	12.28308809936
153	77	75	12.270748666492
153	78	76	12.17708783941
153	79	77	12.249828311798
153	80	78	12.189631068459
153	81	79	12.216143022491
153	82	80	12.244153732752
153	83	81	12.273913706852
153	84	82	12.241147266025
153	85	83	12.280638671952
153	86	84	9.275129625501
153	87	85	6.9574655932414
154	67	66	2.0492601770512
154	68	67	1.7556671955599
154	69	68	1.8207681317185
154	70	69	1.9299720405973
154	71	70	0.42642195231337
154	72	71	0.028619987852872
154	73	72	-0.057183753198478
154	74	73	-0.029144249458332
154	76	74	0.074407861148938
154	77	75	-0.012339432868174
154	78	76	-0.093660827081186
154	79	77	0.072740472387522
154	80	78	-0.060197243338916
154	81	79	0.026511954031884
154	82	80	0.028010710261297
154	83	81	0.029759974100161
154	84	82	-0.0327664408274
154	85	83	0.039491405927111
154	86	84	-3.0055090464511
154	87	85	-2.3176640322596
155	67	66	4.5669665819023
155	68	67	4.9718018898546
155	69	68	6.0265212158169
155	70	69	7.3415326447534
155	71	70	3.132818344402
155	72	71	1.9596105970152
155	73	72	1.7010107818127
155	74	73	1.7813001550884
155	76	74	2.0939968251207
155	77	75	1.8361313962232
155	78	76	1.5893610070346
155	79	77	2.0854865471376
155	80	78	1.6885049551845
155	81	79	1.945773100362
155	82	80	1.9528870318387
155	83	81	1.9609373746863
155	84	82	1.7732971463714
155	85	83	1.9903924186942
155	86	84	0.973
155	87	85	0.973
158	68	67	2414.8461773879
158	69	68	2411.8156173957
158	70	69	2407.0654892415
158	71	70	2401.9492347768
158	72	71	2395.3429720888
158	73	72	2387.2616390446
158	74	73	2377.88964008
158	76	74	2368.1325874045
158	77	75	2358.3525015216
158	78	76	2348.5859072448
158	79	77	2339.3558393085
158	80	78	2334.134043377
158	81	79	2339.6724281097
158	82	80	2350.2401507909
158	83	81	2360.3479415334
158	84	82	2373.2651929288
158	85	83	2386.2097272031
158	86	84	2398.4287969272
158	87	85	2407.8041012615
159	68	67	1578.4618975855
159	69	68	1579.5747033991
159	70	69	1581.6511285175
159	71	70	1586.8331894474
159	72	71	1593.5244234363
159	73	72	1601.709700482
159	74	73	1611.2022442957
159	76	74	1621.084794472
159	77	75	1630.9906741139
159	78	76	1640.8828886179
159	79	77	1651.2191006523
159	80	78	1663.6227387674
159	81	79	1675.1800020821
159	82	80	1684.1872977242
159	83	81	1693.302756588
159	84	82	1695.8068174552
159	85	83	1697.4642608361
159	86	84	1698.6270018416
159	87	85	1699.5134994742
160	69	68	4.1832233416825
160	70	69	6.094705743054
160	71	70	8.2377684972995
160	72	71	10.383634851228
160	73	72	12.377837524719
160	74	73	13.955367659324
160	76	74	13.851809419178
160	77	75	13.908478237184
160	78	76	13.850458060492
160	79	77	13.868616895749
160	80	78	13.842790459395
160	81	79	13.880602546102
160	82	80	13.822803649945
160	83	81	13.423834569094
160	84	82	13.2255948921
160	85	83	12.935006539924
160	86	84	11.002957302336
160	87	85	8.6809024781116
161	70	69	1.9114824013715
161	71	70	2.1430627542455
161	72	71	2.1458663539286
161	73	72	1.9942026734911
161	74	73	1.5775301346051
161	76	74	-0.10355824014638
161	77	75	0.056668818006292
161	78	76	-0.058020176691935
161	79	77	0.018158835256473
161	80	78	-0.025826436353382
161	81	79	0.03781208670698
161	82	80	-0.057798896156941
161	83	81	-0.39896908085125
161	84	82	-0.19823967699439
161	85	83	-0.29058835217566
161	86	84	-1.9320492375883
161	87	85	-2.3220548242241
162	70	69	4.2325536946742
162	71	70	5.8136589782112
162	72	71	7.0842665770013
162	73	72	7.8311198804753
162	74	73	7.3398960673193
162	76	74	1.6780272748096
162	77	75	2.2194443767814
162	78	76	1.8299282126159
162	79	77	2.0861328603344
162	80	78	1.9366600631344
162	81	79	2.1531474890114
162	82	80	1.8282507015857
162	83	81	0.973
162	84	82	1.3298466210965
162	85	83	0.973
162	86	84	0.973
162	87	85	0.973
165	71	70	2414.8737180224
165	72	71	2411.8680781076
165	73	72	2407.1568522488
165	74	73	2402.2695560248
165	76	74	2396.026197728
165	77	75	2388.8153576297
165	78	76	2381.5497398835
165	79	77	2374.291180737
165	80	78	2367.0039128755
165	81	79	2359.7488205928
165	82	80	2352.5072288559
165	83	81	2345.2415486345
165	84	82	2338.5925230284
165	85	83	2334.5092807864
165	86	84	2335.3122361525
165	87	85	2343.1805012265
166	71	70	1578.4517848091
166	72	71	1579.555440099
166	73	72	1581.5585903777
166	74	73	1586.5087481523
166	76	74	1592.8324099882
166	77	75	1600.1359976036
166	78	76	1607.4950674297
166	79	77	1614.8469878668
166	80	78	1622.2279862771
166	81	79	1629.5763952592
166	82	80	1636.9111300483
166	83	81	1644.2702631531
166	84	82	1652.1962642949
166	85	83	1661.3629134735
166	86	84	1671.3416389339
166	87	85	1678.01298209
167	72	71	4.0859593419879
167	73	72	6.0045190997058
167	74	73	7.8119547564685
167	76	74	9.7132447450151
167	77	75	10.306547474335
167	78	76	10.360832532353
167	79	77	10.363603135818
167	80	78	10.313474926586
167	81	79	10.376109655705
167	82	80	10.30018560312
167	83	81	10.313361662883
167	84	82	10.402773770734
167	85	83	10.375479047629
167	86	84	10.333632165571
167	87	85	10.293141099976
168	73	72	1.9185597577179
168	74	73	1.8074356567627
168	76	74	1.9012899885466
168	77	75	0.59330272932006
168	78	76	0.054285058018287
168	79	77	0.0027706034644499
168	80	78	-0.050128209232353
168	81	79	0.062634729119019
168	82	80	-0.075924052584451
168	83	81	0.013176059762481
168	84	82	0.089412107851823
168	85	83	-0.027294723105152
168	86	84	-0.041846882058307
168	87	85	-0.040491065594834
169	73	72	4.1959838790125
169	74	73	4.9337141016577
169	76	74	6.1139389675705
169	77	75	3.1820169359277
169	78	76	1.8480982583787
169	79	77	1.7196866436285
169	80	78	1.5842675844555
169	81	79	1.8703697956326
169	82	80	1.5193616351551
169	83	81	1.7416041869936
169	84	82	1.9399889266157
169	85	83	1.6454433049341
169	86	84	1.6062156789783
169	87	85	1.6068404552844
172	74	73	2414.8769514603
172	76	74	2411.9119199329
172	77	75	2407.298265514
172	78	76	2402.4443862444
172	79	77	2396.2601480235
172	80	78	2388.6069567787
172	81	79	2379.6170040383
172	82	80	2370.499460411
172	83	81	2361.4828216058
172	84	82	2352.873273526
172	85	83	2344.582346547
172	86	84	2337.342957984
172	87	85	2334.045741496
173	74	73	1578.4505975069
173	76	74	1579.5393416099
173	77	75	1581.4153582221
173	78	76	1586.3316692254
173	79	77	1592.5954505689
173	80	78	1600.3470789557
173	81	79	1609.4526625769
173	82	80	1618.6874781894
173	83	81	1627.8200911181
173	84	82	1636.5403772257
173	85	83	1644.9379440527
173	86	84	1653.7959020361
173	87	85	1664.154526961
174	76	74	4.0735588402093
174	77	75	5.8290612863471
174	78	76	7.862662603839
174	79	77	9.6879727271526
174	80	78	11.944467225839
174	81	79	12.952969819309
174	82	80	12.998291028097
174	83	81	12.606718959475
174	84	82	12.01544881161
174	85	83	11.585909929962
174	86	84	11.314088727391
174	87	85	11.066784244638
175	77	75	1.7555024461378
175	78	76	2.0336013174918
175	79	77	1.8253101233137
175	80	78	2.2564944986859
175	81	79	1.0085025934703
175	82	80	0.045321208788081
175	83	81	-0.39157206862161
175	84	82	-0.59127014786565
175	85	83	-0.42953888164786
175	86	84	-0.27182120257115
175	87	85	-0.24730448275276
176	77	75	3.8756268936732
176	78	76	5.3876730590065
176	79	77	5.9230829630863
176	80	78	8.3392083846763
176	81	79	5.0838208937897
176	82	80	2.0818866085506
176	83	81	0.973
176	84	82	0.973
176	85	83	0.973
176	86	84	0.973
176	87	85	0.973
179	78	76	2414.8732395561
179	79	77	2411.9082769358
179	80	78	2407.1655617389
179	81	79	2402.128447905
179	82	80	2395.6944575682
179	83	81	2387.9337748789
179	84	82	2378.7673655167
179	85	83	2368.9823548129
179	86	84	2359.2007163677
179	87	85	2349.4291188199
180	78	76	1578.4519604994
180	79	77	1579.5406792993
180	80	78	1581.5497688642
180	81	79	1586.6516712382
180	82	80	1593.1684170682
180	83	81	1601.0289194789
180	84	82	1610.3132293485
180	85	83	1620.224097156
180	86	84	1630.1315493295
180	87	85	1640.0288314577
181	79	77	4.0635240824116
181	80	78	6.1144633837571
181	81	79	8.1038544815257
181	82	80	10.046968652414
181	83	81	11.926067483762
181	84	82	13.892129573808
181	85	83	13.936045407304
181	86	84	13.987120267581
181	87	85	13.918644116903
182	80	78	2.0509393013455
182	81	79	1.9893910977687
182	82	80	1.9431141708884
182	83	81	1.8790988313477
182	84	82	1.9660620900462
182	85	83	0.043915833495557
182	86	84	0.051074860277586
182	87	85	-0.068476150678471
183	80	78	4.4483142439603
183	81	79	5.4354323508198
183	82	80	6.3932525708783
183	83	81	7.2428843983977
183	84	82	8.6102118406059
183	85	83	2.1797995320176
183	86	84	2.2096954019075
183	87	85	1.8008335806307
186	81	79	2414.8461739381
186	82	80	2411.9468780267
186	83	81	2407.2557718946
186	84	82	2402.3132644872
186	85	83	2396.0984851476
186	86	84	2388.6743410082
186	87	85	2379.9892216683
187	81	79	1578.4618988531
187	82	80	1579.5265051797
187	83	81	1581.4583984045
187	84	82	1586.4644775018
187	85	83	1592.7591927908
187	86	84	1600.2788280137
187	87	85	1609.0756573966
188	82	80	4.0267229073465
188	83	81	5.9477333564631
188	84	82	7.8212407105433
188	85	83	9.6026732088782
188	86	84	11.320051441229
188	87	85	13.138033295601
189	83	81	1.9210104491166
189	84	82	1.8735073540802
189	85	83	1.7814324983349
189	86	84	1.717378232351
189	87	85	1.8179818543722
190	83	81	4.1699391246736
190	84	82	5.0629039791787
190	85	83	5.7777020757503
190	86	84	6.4753185162834
190	87	85	7.7094831312155
193	84	82	2414.8840517174
193	85	83	2412.0108083608
193	86	84	2407.4489481152
193	87	85	2402.6625869117
194	84	82	1578.4479903299
194	85	83	1579.5030302955
194	86	84	1581.2627375061
194	87	85	1586.1106620105
195	85	83	3.8169569386458
195	86	84	5.7666392897474
195	87	85	7.5873002581843
196	86	84	1.9496823511017
196	87	85	1.8206609684369
197	86	84	4.1154883535467
197	87	85	4.845510771239
200	87	85	2414.8924359679
201	87	85	1578.4449116765

