version 3
run Default-0-20260207-14:59:32-12060
attr configname Default
attr datetime 20260207-14:59:32
attr datetimef 20260207-145932
attr experiment Default
attr inifile omnetpp.ini
attr iterationvars ""
attr iterationvarsd ""
attr iterationvarsf ""
attr measurement ""
attr network RSUExampleScenario
attr processid 12060
attr repetition 0
attr replication #0
attr resultdir results
attr runnumber 0
attr seedset 0
config image-path ../../../../../Downloads/veins-5.3.1/veins-veins-5.3.1/images
config cmdenv-express-mode true
config cmdenv-autoflush true
config cmdenv-status-frequency 1s
config **.cmdenv-log-level info
config image-path ../../images
config network RSUExampleScenario
config debug-on-errors true
config print-undisposed true
config sim-time-limit 200s
config **.scalar-recording true
config **.vector-recording true
config *.playgroundSizeX 2500m
config *.playgroundSizeY 2500m
config *.playgroundSizeZ 50m
config *.annotations.draw true
config *.obstacles.obstacles "xmldoc(\"config.xml\", \"//AnalogueModel[@type='SimpleObstacleShadowing']/obstacles\")"
config *.manager.updateInterval 1s
config *.manager.host "\"localhost\""
config *.manager.port 9999
config *.manager.autoShutdown true
config *.manager.launchConfig "xmldoc(\"erlangen.launchd.xml\")"
config *.manager.trafficLightModuleType "\"org.car2x.veins.nodes.TrafficLight\""
config *.tls[*].mobility.x 0
config *.tls[*].mobility.y 0
config *.tls[*].mobility.z 3
config *.tls[*].applType "\"org.car2x.veins.modules.application.traci.TraCIDemoTrafficLightApp\""
config *.tls[*].logicType "\"org.car2x.veins.modules.world.traci.trafficLight.logics.TraCITrafficLightSimpleLogic\""
config *.rsu[0].mobility.x 2000
config *.rsu[0].mobility.y 2000
config *.rsu[0].mobility.z 3
config *.rsu[*].applType "\"PandoraRSU\""
config *.rsu[*].appl.headerLength "80 bit"
config *.rsu[*].appl.sendBeacons false
config *.rsu[*].appl.dataOnSch false
config *.rsu[*].appl.beaconInterval 1s
config *.rsu[*].appl.beaconUserPriority 7
config *.rsu[*].appl.dataUserPriority 5
config *.rsu[*].nic.phy80211p.antennaOffsetZ "0 m"
config *.connectionManager.sendDirect true
config *.connectionManager.maxInterfDist 2600m
config *.connectionManager.drawMaxIntfDist false
config *.**.nic.mac1609_4.useServiceChannel false
config *.**.nic.mac1609_4.txPower 20mW
config *.**.nic.mac1609_4.bitrate 6Mbps
config *.**.nic.phy80211p.minPowerLevel -110dBm
config *.**.nic.phy80211p.useNoiseFloor true
config *.**.nic.phy80211p.noiseFloor -98dBm
config *.**.nic.phy80211p.decider "xmldoc(\"config.xml\")"
config *.**.nic.phy80211p.analogueModels "xmldoc(\"config.xml\")"
config *.**.nic.phy80211p.usePropagationDelay true
config *.**.nic.phy80211p.antenna "xmldoc(\"antenna.xml\", \"/root/Antenna[@id='monopole']\")"
config *.node[*].nic.phy80211p.antennaOffsetY "0 m"
config *.node[*].nic.phy80211p.antennaOffsetZ "1.895 m"
config *.node[*].applType "\"PandoraVehicle\""
config *.node[*].appl.headerLength "80 bit"
config *.node[*].appl.sendBeacons false
config *.node[*].appl.dataOnSch false
config *.node[*].appl.beaconInterval 1s
config *.node[*].veinsmobility.x 0
config *.node[*].veinsmobility.y 0
config *.node[*].veinsmobility.z 0
config *.node[*].veinsmobility.setHostSpeed false
config *.node[*0].veinsmobility.accidentCount 1
config *.node[*0].veinsmobility.accidentStart 73s
config *.node[*0].veinsmobility.accidentDuration 50s

par RSUExampleScenario.obstacles typename "\"org.car2x.veins.modules.obstacle.ObstacleControl\""
par RSUExampleScenario.obstacles obstacles "<obstacles>...</obstacles> at C:/Users/Pranitha/OneDrive/Desktop/ICDDR/Pandora/simulations/\\config.xml:40"
par RSUExampleScenario.obstacles gridCellSize 250
par RSUExampleScenario.annotations typename "\"org.car2x.veins.modules.world.annotations.AnnotationManager\""
par RSUExampleScenario.annotations draw true
par RSUExampleScenario.annotations annotations "<annotations/> at content:1"
par RSUExampleScenario.connectionManager typename "\"org.car2x.veins.base.connectionManager.ConnectionManager\""
par RSUExampleScenario.connectionManager sendDirect true
par RSUExampleScenario.connectionManager maxInterfDist 2600m
attr unit m
par RSUExampleScenario.connectionManager drawMaxIntfDist false
par RSUExampleScenario.world typename "\"org.car2x.veins.base.modules.BaseWorldUtility\""
par RSUExampleScenario.world playgroundSizeX 2500m
attr unit m
par RSUExampleScenario.world playgroundSizeY 2500m
attr unit m
par RSUExampleScenario.world playgroundSizeZ 50m
attr unit m
par RSUExampleScenario.world useTorus false
par RSUExampleScenario.world use2D false
par RSUExampleScenario.manager typename "\"org.car2x.veins.modules.mobility.traci.TraCIScenarioManagerLaunchd\""
par RSUExampleScenario.manager connectAt 0s
attr unit s
par RSUExampleScenario.manager firstStepAt -1s
attr unit s
par RSUExampleScenario.manager updateInterval 1s
attr unit s
par RSUExampleScenario.manager moduleType "\"org.car2x.veins.nodes.Car\""
par RSUExampleScenario.manager moduleName "\"node\""
par RSUExampleScenario.manager moduleDisplayString "\"*='i=veins/node/car;is=vs'\""
par RSUExampleScenario.manager trafficLightModuleType "\"org.car2x.veins.nodes.TrafficLight\""
par RSUExampleScenario.manager trafficLightModuleName "\"tls\""
par RSUExampleScenario.manager trafficLightFilter "\"\""
par RSUExampleScenario.manager trafficLightModuleDisplayString "\"i=veins/node/trafficlight;is=vs\""
par RSUExampleScenario.manager host "\"localhost\""
par RSUExampleScenario.manager port 9999
par RSUExampleScenario.manager seed -1
par RSUExampleScenario.manager autoShutdown true
par RSUExampleScenario.manager margin 25
par RSUExampleScenario.manager roiRoads "\"\""
par RSUExampleScenario.manager roiRects "\"\""
par RSUExampleScenario.manager penetrationRate 1
par RSUExampleScenario.manager ignoreGuiCommands false
par RSUExampleScenario.manager order -1
par RSUExampleScenario.manager ignoreUnknownSubscriptionResults false
par RSUExampleScenario.manager launchConfig "<launch>...</launch> at C:/Users/Pranitha/OneDrive/Desktop/ICDDR/Pandora/simulations/\\erlangen.launchd.xml:35"
scalar RSUExampleScenario.manager roiArea 0
par RSUExampleScenario.roadsCanvasVisualizer typename "\"org.car2x.veins.visualizer.roads.RoadsCanvasVisualizer\""
par RSUExampleScenario.roadsCanvasVisualizer enabled true
par RSUExampleScenario.roadsCanvasVisualizer lineZIndex -1
par RSUExampleScenario.roadsCanvasVisualizer lineColor "\"firebrick4\""
par RSUExampleScenario.roadsCanvasVisualizer lineWidth 1
par RSUExampleScenario.roadsCanvasVisualizer lineWidthZoom false
par RSUExampleScenario.node[0].appl typename "\"PandoraVehicle\""
par RSUExampleScenario.node[0].appl headerLength 80bit
attr unit bit
par RSUExampleScenario.node[0].appl sendBeacons false
par RSUExampleScenario.node[0].appl beaconLengthBits 256bit
attr unit bit
par RSUExampleScenario.node[0].appl beaconUserPriority 7
par RSUExampleScenario.node[0].appl beaconInterval 1s
attr unit s
par RSUExampleScenario.node[0].appl dataLengthBits 1024bit
attr unit bit
par RSUExampleScenario.node[0].appl dataOnSch false
par RSUExampleScenario.node[0].appl dataUserPriority 7
par RSUExampleScenario.node[0].appl avoidBeaconSynchronization true
par RSUExampleScenario.node[0].appl sendWSA false
par RSUExampleScenario.node[0].appl wsaLengthBits 250bit
attr unit bit
par RSUExampleScenario.node[0].appl wsaInterval 1s
attr unit s
par RSUExampleScenario.node[0].nic.phy80211p typename "\"org.car2x.veins.modules.phy.PhyLayer80211p\""
par RSUExampleScenario.node[0].nic.phy80211p recordStats false
par RSUExampleScenario.node[0].nic.phy80211p usePropagationDelay true
par RSUExampleScenario.node[0].nic.phy80211p noiseFloor -98dBm
attr unit dBm
par RSUExampleScenario.node[0].nic.phy80211p useNoiseFloor true
par RSUExampleScenario.node[0].nic.phy80211p antenna "<Antenna type=\"SampledAntenna1D\" id=\"monopole\">...</Antenna> at C:/Users/Pranitha/OneDrive/Desktop/ICDDR/Pandora/simulations/\\antenna.xml:35"
par RSUExampleScenario.node[0].nic.phy80211p antennaOffsetX 0m
attr unit m
par RSUExampleScenario.node[0].nic.phy80211p antennaOffsetY 0m
attr unit m
par RSUExampleScenario.node[0].nic.phy80211p antennaOffsetZ 1.895m
attr unit m
par RSUExampleScenario.node[0].nic.phy80211p antennaOffsetYaw 0rad
attr unit rad
par RSUExampleScenario.node[0].nic.phy80211p analogueModels "<root>...</root> at C:/Users/Pranitha/OneDrive/Desktop/ICDDR/Pandora/simulations/\\config.xml:34"
par RSUExampleScenario.node[0].nic.phy80211p decider "<root>...</root> at C:/Users/Pranitha/OneDrive/Desktop/ICDDR/Pandora/simulations/\\config.xml:34"
par RSUExampleScenario.node[0].nic.phy80211p minPowerLevel -110dBm
attr unit dBm
par RSUExampleScenario.node[0].nic.phy80211p timeRXToTX 0s
attr unit s
par RSUExampleScenario.node[0].nic.phy80211p timeRXToSleep 0s
attr unit s
par RSUExampleScenario.node[0].nic.phy80211p timeTXToRX 0s
attr unit s
par RSUExampleScenario.node[0].nic.phy80211p timeTXToSleep 0s
attr unit s
par RSUExampleScenario.node[0].nic.phy80211p timeSleepToRX 0s
attr unit s
par RSUExampleScenario.node[0].nic.phy80211p timeSleepToTX 0s
attr unit s
par RSUExampleScenario.node[0].nic.phy80211p initialRadioState 0
par RSUExampleScenario.node[0].nic.phy80211p radioMinAtt 1
par RSUExampleScenario.node[0].nic.phy80211p radioMaxAtt 0
par RSUExampleScenario.node[0].nic.phy80211p nbRadioChannels 1
par RSUExampleScenario.node[0].nic.phy80211p initialRadioChannel 0
par RSUExampleScenario.node[0].nic.phy80211p ccaThreshold -65dBm
attr unit dBm
par RSUExampleScenario.node[0].nic.phy80211p collectCollisionStatistics false
par RSUExampleScenario.node[0].nic.phy80211p allowTxDuringRx false
scalar RSUExampleScenario.node[0].nic.phy80211p busyTime 0.00012357788944724
par RSUExampleScenario.node[0].nic.mac1609_4 typename "\"org.car2x.veins.modules.mac.ieee80211p.Mac1609_4\""
par RSUExampleScenario.node[0].nic.mac1609_4 notAffectedByHostState false
par RSUExampleScenario.node[0].nic.mac1609_4 headerLength 0bit
attr unit bit
par RSUExampleScenario.node[0].nic.mac1609_4 address "\"auto\""
par RSUExampleScenario.node[0].nic.mac1609_4 useServiceChannel false
par RSUExampleScenario.node[0].nic.mac1609_4 serviceChannel 1
par RSUExampleScenario.node[0].nic.mac1609_4 bitrate 6000000bps
attr unit bps
par RSUExampleScenario.node[0].nic.mac1609_4 syncOffset 0.0003s
attr unit s
par RSUExampleScenario.node[0].nic.mac1609_4 txPower 20mW
attr unit mW
par RSUExampleScenario.node[0].nic.mac1609_4 queueSize 0
par RSUExampleScenario.node[0].nic.mac1609_4 dot11RTSThreshold 12000bit
attr unit bit
par RSUExampleScenario.node[0].nic.mac1609_4 dot11ShortRetryLimit 7
par RSUExampleScenario.node[0].nic.mac1609_4 dot11LongRetryLimit 4
par RSUExampleScenario.node[0].nic.mac1609_4 ackLength 112bit
attr unit bit
par RSUExampleScenario.node[0].nic.mac1609_4 useAcks false
par RSUExampleScenario.node[0].nic.mac1609_4 frameErrorRate 0
par RSUExampleScenario.node[0].nic.mac1609_4 ackErrorRate 0
scalar RSUExampleScenario.node[0].nic.mac1609_4 ReceivedUnicastPackets 0
scalar RSUExampleScenario.node[0].nic.mac1609_4 ReceivedBroadcasts 106
scalar RSUExampleScenario.node[0].nic.mac1609_4 SentPackets 22
scalar RSUExampleScenario.node[0].nic.mac1609_4 SentAcknowledgements 0
scalar RSUExampleScenario.node[0].nic.mac1609_4 RetriesExceeded 0
scalar RSUExampleScenario.node[0].nic.mac1609_4 SNIRLostPackets 0
scalar RSUExampleScenario.node[0].nic.mac1609_4 RXTXLostPackets 0
scalar RSUExampleScenario.node[0].nic.mac1609_4 TotalLostPackets 0
scalar RSUExampleScenario.node[0].nic.mac1609_4 DroppedPacketsInMac 0
scalar RSUExampleScenario.node[0].nic.mac1609_4 TooLittleTime 0
scalar RSUExampleScenario.node[0].nic.mac1609_4 TimesIntoBackoff 22
scalar RSUExampleScenario.node[0].nic.mac1609_4 SlotsBackoff 28
scalar RSUExampleScenario.node[0].nic.mac1609_4 NumInternalContention 0
scalar RSUExampleScenario.node[0].nic.mac1609_4 totalBusyTime 0.029718
scalar RSUExampleScenario.node[0].nic.mac1609_4 retriesExceeded:count 0
attr recordingmode count
attr source org_car2x_veins_modules_mac_sigRetriesExceeded
scalar RSUExampleScenario.node[0].nic.mac1609_4 sentAcks:count 0
attr recordingmode count
attr source org_car2x_veins_modules_mac_sigSentAck
scalar RSUExampleScenario.node[0].nic.mac1609_4 sentPackets:count 22
attr recordingmode count
attr source org_car2x_veins_modules_mac_sigSentPacket
scalar RSUExampleScenario.node[0].nic.mac1609_4 collisions:count 0
attr recordingmode count
attr source org_car2x_veins_modules_mac_sigCollision
scalar RSUExampleScenario.node[0].nic.mac1609_4 channelBusy:timeavg 0.00014933668341709
attr recordingmode timeavg
attr source org_car2x_veins_modules_mac_sigChannelBusy
par RSUExampleScenario.node[0].nic typename "\"org.car2x.veins.modules.nic.Nic80211p\""
par RSUExampleScenario.node[0].nic connectionManagerName "\"connectionManager\""
par RSUExampleScenario.node[0].veinsmobility typename "\"org.car2x.veins.modules.mobility.traci.TraCIMobility\""
par RSUExampleScenario.node[0].veinsmobility notAffectedByHostState true
par RSUExampleScenario.node[0].veinsmobility x 0
par RSUExampleScenario.node[0].veinsmobility y 0
par RSUExampleScenario.node[0].veinsmobility z 0
par RSUExampleScenario.node[0].veinsmobility xOrientation 1
par RSUExampleScenario.node[0].veinsmobility yOrientation 0
par RSUExampleScenario.node[0].veinsmobility zOrientation 0
par RSUExampleScenario.node[0].veinsmobility hostPositionOffset 0m
attr unit m
par RSUExampleScenario.node[0].veinsmobility setHostSpeed false
par RSUExampleScenario.node[0].veinsmobility accidentCount 1
par RSUExampleScenario.node[0].veinsmobility accidentStart 73s
attr unit s
par RSUExampleScenario.node[0].veinsmobility accidentDuration 50s
attr unit s
par RSUExampleScenario.node[0].veinsmobility accidentInterval "uniform(30s, 60s)"
attr unit s
scalar RSUExampleScenario.node[0].veinsmobility startTime 1
scalar RSUExampleScenario.node[0].veinsmobility totalTime 199
scalar RSUExampleScenario.node[0].veinsmobility stopTime 200
scalar RSUExampleScenario.node[0].veinsmobility minSpeed 0
scalar RSUExampleScenario.node[0].veinsmobility maxSpeed 13.999815066161
scalar RSUExampleScenario.node[0].veinsmobility totalDistance 1969.009608786
scalar RSUExampleScenario.node[0].veinsmobility totalCO2Emission 408.62889559086
par RSUExampleScenario.node[0] typename "\"org.car2x.veins.nodes.Car\""
par RSUExampleScenario.node[0] applType "\"PandoraVehicle\""
par RSUExampleScenario.node[0] nicType "\"Nic80211p\""
par RSUExampleScenario.node[0] veinsmobilityType "\"org.car2x.veins.modules.mobility.traci.TraCIMobility\""
par RSUExampleScenario.node[1].appl typename "\"PandoraVehicle\""
par RSUExampleScenario.node[1].appl headerLength 80bit
attr unit bit
par RSUExampleScenario.node[1].appl sendBeacons false
par RSUExampleScenario.node[1].appl beaconLengthBits 256bit
attr unit bit
par RSUExampleScenario.node[1].appl beaconUserPriority 7
par RSUExampleScenario.node[1].appl beaconInterval 1s
attr unit s
par RSUExampleScenario.node[1].appl dataLengthBits 1024bit
attr unit bit
par RSUExampleScenario.node[1].appl dataOnSch false
par RSUExampleScenario.node[1].appl dataUserPriority 7
par RSUExampleScenario.node[1].appl avoidBeaconSynchronization true
par RSUExampleScenario.node[1].appl sendWSA false
par RSUExampleScenario.node[1].appl wsaLengthBits 250bit
attr unit bit
par RSUExampleScenario.node[1].appl wsaInterval 1s
attr unit s
par RSUExampleScenario.node[1].nic.phy80211p typename "\"org.car2x.veins.modules.phy.PhyLayer80211p\""
par RSUExampleScenario.node[1].nic.phy80211p recordStats false
par RSUExampleScenario.node[1].nic.phy80211p usePropagationDelay true
par RSUExampleScenario.node[1].nic.phy80211p noiseFloor -98dBm
attr unit dBm
par RSUExampleScenario.node[1].nic.phy80211p useNoiseFloor true
par RSUExampleScenario.node[1].nic.phy80211p antenna "<Antenna type=\"SampledAntenna1D\" id=\"monopole\">...</Antenna> at C:/Users/Pranitha/OneDrive/Desktop/ICDDR/Pandora/simulations/\\antenna.xml:35"
par RSUExampleScenario.node[1].nic.phy80211p antennaOffsetX 0m
attr unit m
par RSUExampleScenario.node[1].nic.phy80211p antennaOffsetY 0m
attr unit m
par RSUExampleScenario.node[1].nic.phy80211p antennaOffsetZ 1.895m
attr unit m
par RSUExampleScenario.node[1].nic.phy80211p antennaOffsetYaw 0rad
attr unit rad
par RSUExampleScenario.node[1].nic.phy80211p analogueModels "<root>...</root> at C:/Users/Pranitha/OneDrive/Desktop/ICDDR/Pandora/simulations/\\config.xml:34"
par RSUExampleScenario.node[1].nic.phy80211p decider "<root>...</root> at C:/Users/Pranitha/OneDrive/Desktop/ICDDR/Pandora/simulations/\\config.xml:34"
par RSUExampleScenario.node[1].nic.phy80211p minPowerLevel -110dBm
attr unit dBm
par RSUExampleScenario.node[1].nic.phy80211p timeRXToTX 0s
attr unit s
par RSUExampleScenario.node[1].nic.phy80211p timeRXToSleep 0s
attr unit s
par RSUExampleScenario.node[1].nic.phy80211p timeTXToRX 0s
attr unit s
par RSUExampleScenario.node[1].nic.phy80211p timeTXToSleep 0s
attr unit s
par RSUExampleScenario.node[1].nic.phy80211p timeSleepToRX 0s
attr unit s
par RSUExampleScenario.node[1].nic.phy80211p timeSleepToTX 0s
attr unit s
par RSUExampleScenario.node[1].nic.phy80211p initialRadioState 0
par RSUExampleScenario.node[1].nic.phy80211p radioMinAtt 1
par RSUExampleScenario.node[1].nic.phy80211p radioMaxAtt 0
par RSUExampleScenario.node[1].nic.phy80211p nbRadioChannels 1
par RSUExampleScenario.node[1].nic.phy80211p initialRadioChannel 0
par RSUExampleScenario.node[1].nic.phy80211p ccaThreshold -65dBm
attr unit dBm
par RSUExampleScenario.node[1].nic.phy80211p collectCollisionStatistics false
par RSUExampleScenario.node[1].nic.phy80211p allowTxDuringRx false
scalar RSUExampleScenario.node[1].nic.phy80211p busyTime 0.00012902040816327
par RSUExampleScenario.node[1].nic.mac1609_4 typename "\"org.car2x.veins.modules.mac.ieee80211p.Mac1609_4\""
par RSUExampleScenario.node[1].nic.mac1609_4 notAffectedByHostState false
par RSUExampleScenario.node[1].nic.mac1609_4 headerLength 0bit
attr unit bit
par RSUExampleScenario.node[1].nic.mac1609_4 address "\"auto\""
par RSUExampleScenario.node[1].nic.mac1609_4 useServiceChannel false
par RSUExampleScenario.node[1].nic.mac1609_4 serviceChannel 1
par RSUExampleScenario.node[1].nic.mac1609_4 bitrate 6000000bps
attr unit bps
par RSUExampleScenario.node[1].nic.mac1609_4 syncOffset 0.0003s
attr unit s
par RSUExampleScenario.node[1].nic.mac1609_4 txPower 20mW
attr unit mW
par RSUExampleScenario.node[1].nic.mac1609_4 queueSize 0
par RSUExampleScenario.node[1].nic.mac1609_4 dot11RTSThreshold 12000bit
attr unit bit
par RSUExampleScenario.node[1].nic.mac1609_4 dot11ShortRetryLimit 7
par RSUExampleScenario.node[1].nic.mac1609_4 dot11LongRetryLimit 4
par RSUExampleScenario.node[1].nic.mac1609_4 ackLength 112bit
attr unit bit
par RSUExampleScenario.node[1].nic.mac1609_4 useAcks false
par RSUExampleScenario.node[1].nic.mac1609_4 frameErrorRate 0
par RSUExampleScenario.node[1].nic.mac1609_4 ackErrorRate 0
scalar RSUExampleScenario.node[1].nic.mac1609_4 ReceivedUnicastPackets 0
scalar RSUExampleScenario.node[1].nic.mac1609_4 ReceivedBroadcasts 109
scalar RSUExampleScenario.node[1].nic.mac1609_4 SentPackets 19
scalar RSUExampleScenario.node[1].nic.mac1609_4 SentAcknowledgements 0
scalar RSUExampleScenario.node[1].nic.mac1609_4 RetriesExceeded 0
scalar RSUExampleScenario.node[1].nic.mac1609_4 SNIRLostPackets 0
scalar RSUExampleScenario.node[1].nic.mac1609_4 RXTXLostPackets 0
scalar RSUExampleScenario.node[1].nic.mac1609_4 TotalLostPackets 0
scalar RSUExampleScenario.node[1].nic.mac1609_4 DroppedPacketsInMac 0
scalar RSUExampleScenario.node[1].nic.mac1609_4 TooLittleTime 0
scalar RSUExampleScenario.node[1].nic.mac1609_4 TimesIntoBackoff 19
scalar RSUExampleScenario.node[1].nic.mac1609_4 SlotsBackoff 29
scalar RSUExampleScenario.node[1].nic.mac1609_4 NumInternalContention 0
scalar RSUExampleScenario.node[1].nic.mac1609_4 totalBusyTime 0.029715
scalar RSUExampleScenario.node[1].nic.mac1609_4 retriesExceeded:count 0
attr recordingmode count
attr source org_car2x_veins_modules_mac_sigRetriesExceeded
scalar RSUExampleScenario.node[1].nic.mac1609_4 sentAcks:count 0
attr recordingmode count
attr source org_car2x_veins_modules_mac_sigSentAck
scalar RSUExampleScenario.node[1].nic.mac1609_4 sentPackets:count 19
attr recordingmode count
attr source org_car2x_veins_modules_mac_sigSentPacket
scalar RSUExampleScenario.node[1].nic.mac1609_4 collisions:count 0
attr recordingmode count
attr source org_car2x_veins_modules_mac_sigCollision
scalar RSUExampleScenario.node[1].nic.mac1609_4 channelBusy:timeavg 0.00015160714285714
attr recordingmode timeavg
attr source org_car2x_veins_modules_mac_sigChannelBusy
par RSUExampleScenario.node[1].nic typename "\"org.car2x.veins.modules.nic.Nic80211p\""
par RSUExampleScenario.node[1].nic connectionManagerName "\"connectionManager\""
par RSUExampleScenario.node[1].veinsmobility typename "\"org.car2x.veins.modules.mobility.traci.TraCIMobility\""
par RSUExampleScenario.node[1].veinsmobility notAffectedByHostState true
par RSUExampleScenario.node[1].veinsmobility x 0
par RSUExampleScenario.node[1].veinsmobility y 0
par RSUExampleScenario.node[1].veinsmobility z 0
par RSUExampleScenario.node[1].veinsmobility xOrientation 1
par RSUExampleScenario.node[1].veinsmobility yOrientation 0
par RSUExampleScenario.node[1].veinsmobility zOrientation 0
par RSUExampleScenario.node[1].veinsmobility hostPositionOffset 0m
attr unit m
par RSUExampleScenario.node[1].veinsmobility setHostSpeed false
par RSUExampleScenario.node[1].veinsmobility accidentCount 0
par RSUExampleScenario.node[1].veinsmobility accidentStart 48.7069s
attr unit s
par RSUExampleScenario.node[1].veinsmobility accidentDuration "uniform(30s, 60s)"
attr unit s
par RSUExampleScenario.node[1].veinsmobility accidentInterval "uniform(30s, 60s)"
attr unit s
scalar RSUExampleScenario.node[1].veinsmobility startTime 4
scalar RSUExampleScenario.node[1].veinsmobility totalTime 196
scalar RSUExampleScenario.node[1].veinsmobility stopTime 200
scalar RSUExampleScenario.node[1].veinsmobility minSpeed 0
scalar RSUExampleScenario.node[1].veinsmobility maxSpeed 13.999179182528
scalar RSUExampleScenario.node[1].veinsmobility totalDistance 1953.4136819
scalar RSUExampleScenario.node[1].veinsmobility totalCO2Emission 402.61442587884
par RSUExampleScenario.node[1] typename "\"org.car2x.veins.nodes.Car\""
par RSUExampleScenario.node[1] applType "\"PandoraVehicle\""
par RSUExampleScenario.node[1] nicType "\"Nic80211p\""
par RSUExampleScenario.node[1] veinsmobilityType "\"org.car2x.veins.modules.mobility.traci.TraCIMobility\""
par RSUExampleScenario.node[2].appl typename "\"PandoraVehicle\""
par RSUExampleScenario.node[2].appl headerLength 80bit
attr unit bit
par RSUExampleScenario.node[2].appl sendBeacons false
par RSUExampleScenario.node[2].appl beaconLengthBits 256bit
attr unit bit
par RSUExampleScenario.node[2].appl beaconUserPriority 7
par RSUExampleScenario.node[2].appl beaconInterval 1s
attr unit s
par RSUExampleScenario.node[2].appl dataLengthBits 1024bit
attr unit bit
par RSUExampleScenario.node[2].appl dataOnSch false
par RSUExampleScenario.node[2].appl dataUserPriority 7
par RSUExampleScenario.node[2].appl avoidBeaconSynchronization true
par RSUExampleScenario.node[2].appl sendWSA false
par RSUExampleScenario.node[2].appl wsaLengthBits 250bit
attr unit bit
par RSUExampleScenario.node[2].appl wsaInterval 1s
attr unit s
par RSUExampleScenario.node[2].nic.phy80211p typename "\"org.car2x.veins.modules.phy.PhyLayer80211p\""
par RSUExampleScenario.node[2].nic.phy80211p recordStats false
par RSUExampleScenario.node[2].nic.phy80211p usePropagationDelay true
par RSUExampleScenario.node[2].nic.phy80211p noiseFloor -98dBm
attr unit dBm
par RSUExampleScenario.node[2].nic.phy80211p useNoiseFloor true
par RSUExampleScenario.node[2].nic.phy80211p antenna "<Antenna type=\"SampledAntenna1D\" id=\"monopole\">...</Antenna> at C:/Users/Pranitha/OneDrive/Desktop/ICDDR/Pandora/simulations/\\antenna.xml:35"
par RSUExampleScenario.node[2].nic.phy80211p antennaOffsetX 0m
attr unit m
par RSUExampleScenario.node[2].nic.phy80211p antennaOffsetY 0m
attr unit m
par RSUExampleScenario.node[2].nic.phy80211p antennaOffsetZ 1.895m
attr unit m
par RSUExampleScenario.node[2].nic.phy80211p antennaOffsetYaw 0rad
attr unit rad
par RSUExampleScenario.node[2].nic.phy80211p analogueModels "<root>...</root> at C:/Users/Pranitha/OneDrive/Desktop/ICDDR/Pandora/simulations/\\config.xml:34"
par RSUExampleScenario.node[2].nic.phy80211p decider "<root>...</root> at C:/Users/Pranitha/OneDrive/Desktop/ICDDR/Pandora/simulations/\\config.xml:34"
par RSUExampleScenario.node[2].nic.phy80211p minPowerLevel -110dBm
attr unit dBm
par RSUExampleScenario.node[2].nic.phy80211p timeRXToTX 0s
attr unit s
par RSUExampleScenario.node[2].nic.phy80211p timeRXToSleep 0s
attr unit s
par RSUExampleScenario.node[2].nic.phy80211p timeTXToRX 0s
attr unit s
par RSUExampleScenario.node[2].nic.phy80211p timeTXToSleep 0s
attr unit s
par RSUExampleScenario.node[2].nic.phy80211p timeSleepToRX 0s
attr unit s
par RSUExampleScenario.node[2].nic.phy80211p timeSleepToTX 0s
attr unit s
par RSUExampleScenario.node[2].nic.phy80211p initialRadioState 0
par RSUExampleScenario.node[2].nic.phy80211p radioMinAtt 1
par RSUExampleScenario.node[2].nic.phy80211p radioMaxAtt 0
par RSUExampleScenario.node[2].nic.phy80211p nbRadioChannels 1
par RSUExampleScenario.node[2].nic.phy80211p initialRadioChannel 0
par RSUExampleScenario.node[2].nic.phy80211p ccaThreshold -65dBm
attr unit dBm
par RSUExampleScenario.node[2].nic.phy80211p collectCollisionStatistics false
par RSUExampleScenario.node[2].nic.phy80211p allowTxDuringRx false
scalar RSUExampleScenario.node[2].nic.phy80211p busyTime 0.00013343005181347
par RSUExampleScenario.node[2].nic.mac1609_4 typename "\"org.car2x.veins.modules.mac.ieee80211p.Mac1609_4\""
par RSUExampleScenario.node[2].nic.mac1609_4 notAffectedByHostState false
par RSUExampleScenario.node[2].nic.mac1609_4 headerLength 0bit
attr unit bit
par RSUExampleScenario.node[2].nic.mac1609_4 address "\"auto\""
par RSUExampleScenario.node[2].nic.mac1609_4 useServiceChannel false
par RSUExampleScenario.node[2].nic.mac1609_4 serviceChannel 1
par RSUExampleScenario.node[2].nic.mac1609_4 bitrate 6000000bps
attr unit bps
par RSUExampleScenario.node[2].nic.mac1609_4 syncOffset 0.0003s
attr unit s
par RSUExampleScenario.node[2].nic.mac1609_4 txPower 20mW
attr unit mW
par RSUExampleScenario.node[2].nic.mac1609_4 queueSize 0
par RSUExampleScenario.node[2].nic.mac1609_4 dot11RTSThreshold 12000bit
attr unit bit
par RSUExampleScenario.node[2].nic.mac1609_4 dot11ShortRetryLimit 7
par RSUExampleScenario.node[2].nic.mac1609_4 dot11LongRetryLimit 4
par RSUExampleScenario.node[2].nic.mac1609_4 ackLength 112bit
attr unit bit
par RSUExampleScenario.node[2].nic.mac1609_4 useAcks false
par RSUExampleScenario.node[2].nic.mac1609_4 frameErrorRate 0
par RSUExampleScenario.node[2].nic.mac1609_4 ackErrorRate 0
scalar RSUExampleScenario.node[2].nic.mac1609_4 ReceivedUnicastPackets 0
scalar RSUExampleScenario.node[2].nic.mac1609_4 ReceivedBroadcasts 111
scalar RSUExampleScenario.node[2].nic.mac1609_4 SentPackets 17
scalar RSUExampleScenario.node[2].nic.mac1609_4 SentAcknowledgements 0
scalar RSUExampleScenario.node[2].nic.mac1609_4 RetriesExceeded 0
scalar RSUExampleScenario.node[2].nic.mac1609_4 SNIRLostPackets 0
scalar RSUExampleScenario.node[2].nic.mac1609_4 RXTXLostPackets 0
scalar RSUExampleScenario.node[2].nic.mac1609_4 TotalLostPackets 0
scalar RSUExampleScenario.node[2].nic.mac1609_4 DroppedPacketsInMac 0
scalar RSUExampleScenario.node[2].nic.mac1609_4 TooLittleTime 0
scalar RSUExampleScenario.node[2].nic.mac1609_4 TimesIntoBackoff 17
scalar RSUExampleScenario.node[2].nic.mac1609_4 SlotsBackoff 41
scalar RSUExampleScenario.node[2].nic.mac1609_4 NumInternalContention 0
scalar RSUExampleScenario.node[2].nic.mac1609_4 totalBusyTime 0.029713
scalar RSUExampleScenario.node[2].nic.mac1609_4 retriesExceeded:count 0
attr recordingmode count
attr source org_car2x_veins_modules_mac_sigRetriesExceeded
scalar RSUExampleScenario.node[2].nic.mac1609_4 sentAcks:count 0
attr recordingmode count
attr source org_car2x_veins_modules_mac_sigSentAck
scalar RSUExampleScenario.node[2].nic.mac1609_4 sentPackets:count 17
attr recordingmode count
attr source org_car2x_veins_modules_mac_sigSentPacket
scalar RSUExampleScenario.node[2].nic.mac1609_4 collisions:count 0
attr recordingmode count
attr source org_car2x_veins_modules_mac_sigCollision
scalar RSUExampleScenario.node[2].nic.mac1609_4 channelBusy:timeavg 0.00015395336787565
attr recordingmode timeavg
attr source org_car2x_veins_modules_mac_sigChannelBusy
par RSUExampleScenario.node[2].nic typename "\"org.car2x.veins.modules.nic.Nic80211p\""
par RSUExampleScenario.node[2].nic connectionManagerName "\"connectionManager\""
par RSUExampleScenario.node[2].veinsmobility typename "\"org.car2x.veins.modules.mobility.traci.TraCIMobility\""
par RSUExampleScenario.node[2].veinsmobility notAffectedByHostState true
par RSUExampleScenario.node[2].veinsmobility x 0
par RSUExampleScenario.node[2].veinsmobility y 0
par RSUExampleScenario.node[2].veinsmobility z 0
par RSUExampleScenario.node[2].veinsmobility xOrientation 1
par RSUExampleScenario.node[2].veinsmobility yOrientation 0
par RSUExampleScenario.node[2].veinsmobility zOrientation 0
par RSUExampleScenario.node[2].veinsmobility hostPositionOffset 0m
attr unit m
par RSUExampleScenario.node[2].veinsmobility setHostSpeed false
par RSUExampleScenario.node[2].veinsmobility accidentCount 0
par RSUExampleScenario.node[2].veinsmobility accidentStart 31.7014s
attr unit s
par RSUExampleScenario.node[2].veinsmobility accidentDuration "uniform(30s, 60s)"
attr unit s
par RSUExampleScenario.node[2].veinsmobility accidentInterval "uniform(30s, 60s)"
attr unit s
scalar RSUExampleScenario.node[2].veinsmobility startTime 7
scalar RSUExampleScenario.node[2].veinsmobility totalTime 193
scalar RSUExampleScenario.node[2].veinsmobility stopTime 200
scalar RSUExampleScenario.node[2].veinsmobility minSpeed 0
scalar RSUExampleScenario.node[2].veinsmobility maxSpeed 13.994902517959
scalar RSUExampleScenario.node[2].veinsmobility totalDistance 1939.0129229632
scalar RSUExampleScenario.node[2].veinsmobility totalCO2Emission 398.45333873203
par RSUExampleScenario.node[2] typename "\"org.car2x.veins.nodes.Car\""
par RSUExampleScenario.node[2] applType "\"PandoraVehicle\""
par RSUExampleScenario.node[2] nicType "\"Nic80211p\""
par RSUExampleScenario.node[2] veinsmobilityType "\"org.car2x.veins.modules.mobility.traci.TraCIMobility\""
par RSUExampleScenario.node[3].appl typename "\"PandoraVehicle\""
par RSUExampleScenario.node[3].appl headerLength 80bit
attr unit bit
par RSUExampleScenario.node[3].appl sendBeacons false
par RSUExampleScenario.node[3].appl beaconLengthBits 256bit
attr unit bit
par RSUExampleScenario.node[3].appl beaconUserPriority 7
par RSUExampleScenario.node[3].appl beaconInterval 1s
attr unit s
par RSUExampleScenario.node[3].appl dataLengthBits 1024bit
attr unit bit
par RSUExampleScenario.node[3].appl dataOnSch false
par RSUExampleScenario.node[3].appl dataUserPriority 7
par RSUExampleScenario.node[3].appl avoidBeaconSynchronization true
par RSUExampleScenario.node[3].appl sendWSA false
par RSUExampleScenario.node[3].appl wsaLengthBits 250bit
attr unit bit
par RSUExampleScenario.node[3].appl wsaInterval 1s
attr unit s
par RSUExampleScenario.node[3].nic.phy80211p typename "\"org.car2x.veins.modules.phy.PhyLayer80211p\""
par RSUExampleScenario.node[3].nic.phy80211p recordStats false
par RSUExampleScenario.node[3].nic.phy80211p usePropagationDelay true
par RSUExampleScenario.node[3].nic.phy80211p noiseFloor -98dBm
attr unit dBm
par RSUExampleScenario.node[3].nic.phy80211p useNoiseFloor true
par RSUExampleScenario.node[3].nic.phy80211p antenna "<Antenna type=\"SampledAntenna1D\" id=\"monopole\">...</Antenna> at C:/Users/Pranitha/OneDrive/Desktop/ICDDR/Pandora/simulations/\\antenna.xml:35"
par RSUExampleScenario.node[3].nic.phy80211p antennaOffsetX 0m
attr unit m
par RSUExampleScenario.node[3].nic.phy80211p antennaOffsetY 0m
attr unit m
par RSUExampleScenario.node[3].nic.phy80211p antennaOffsetZ 1.895m
attr unit m
par RSUExampleScenario.node[3].nic.phy80211p antennaOffsetYaw 0rad
attr unit rad
par RSUExampleScenario.node[3].nic.phy80211p analogueModels "<root>...</root> at C:/Users/Pranitha/OneDrive/Desktop/ICDDR/Pandora/simulations/\\config.xml:34"
par RSUExampleScenario.node[3].nic.phy80211p decider "<root>...</root> at C:/Users/Pranitha/OneDrive/Desktop/ICDDR/Pandora/simulations/\\config.xml:34"
par RSUExampleScenario.node[3].nic.phy80211p minPowerLevel -110dBm
attr unit dBm
par RSUExampleScenario.node[3].nic.phy80211p timeRXToTX 0s
attr unit s
par RSUExampleScenario.node[3].nic.phy80211p timeRXToSleep 0s
attr unit s
par RSUExampleScenario.node[3].nic.phy80211p timeTXToRX 0s
attr unit s
par RSUExampleScenario.node[3].nic.phy80211p timeTXToSleep 0s
attr unit s
par RSUExampleScenario.node[3].nic.phy80211p timeSleepToRX 0s
attr unit s
par RSUExampleScenario.node[3].nic.phy80211p timeSleepToTX 0s
attr unit s
par RSUExampleScenario.node[3].nic.phy80211p initialRadioState 0
par RSUExampleScenario.node[3].nic.phy80211p radioMinAtt 1
par RSUExampleScenario.node[3].nic.phy80211p radioMaxAtt 0
par RSUExampleScenario.node[3].nic.phy80211p nbRadioChannels 1
par RSUExampleScenario.node[3].nic.phy80211p initialRadioChannel 0
par RSUExampleScenario.node[3].nic.phy80211p ccaThreshold -65dBm
attr unit dBm
par RSUExampleScenario.node[3].nic.phy80211p collectCollisionStatistics false
par RSUExampleScenario.node[3].nic.phy80211p allowTxDuringRx false
scalar RSUExampleScenario.node[3].nic.phy80211p busyTime 0.00013797894736842
par RSUExampleScenario.node[3].nic.mac1609_4 typename "\"org.car2x.veins.modules.mac.ieee80211p.Mac1609_4\""
par RSUExampleScenario.node[3].nic.mac1609_4 notAffectedByHostState false
par RSUExampleScenario.node[3].nic.mac1609_4 headerLength 0bit
attr unit bit
par RSUExampleScenario.node[3].nic.mac1609_4 address "\"auto\""
par RSUExampleScenario.node[3].nic.mac1609_4 useServiceChannel false
par RSUExampleScenario.node[3].nic.mac1609_4 serviceChannel 1
par RSUExampleScenario.node[3].nic.mac1609_4 bitrate 6000000bps
attr unit bps
par RSUExampleScenario.node[3].nic.mac1609_4 syncOffset 0.0003s
attr unit s
par RSUExampleScenario.node[3].nic.mac1609_4 txPower 20mW
attr unit mW
par RSUExampleScenario.node[3].nic.mac1609_4 queueSize 0
par RSUExampleScenario.node[3].nic.mac1609_4 dot11RTSThreshold 12000bit
attr unit bit
par RSUExampleScenario.node[3].nic.mac1609_4 dot11ShortRetryLimit 7
par RSUExampleScenario.node[3].nic.mac1609_4 dot11LongRetryLimit 4
par RSUExampleScenario.node[3].nic.mac1609_4 ackLength 112bit
attr unit bit
par RSUExampleScenario.node[3].nic.mac1609_4 useAcks false
par RSUExampleScenario.node[3].nic.mac1609_4 frameErrorRate 0
par RSUExampleScenario.node[3].nic.mac1609_4 ackErrorRate 0
scalar RSUExampleScenario.node[3].nic.mac1609_4 ReceivedUnicastPackets 0
scalar RSUExampleScenario.node[3].nic.mac1609_4 ReceivedBroadcasts 113
scalar RSUExampleScenario.node[3].nic.mac1609_4 SentPackets 15
scalar RSUExampleScenario.node[3].nic.mac1609_4 SentAcknowledgements 0
scalar RSUExampleScenario.node[3].nic.mac1609_4 RetriesExceeded 0
scalar RSUExampleScenario.node[3].nic.mac1609_4 SNIRLostPackets 0
scalar RSUExampleScenario.node[3].nic.mac1609_4 RXTXLostPackets 0
scalar RSUExampleScenario.node[3].nic.mac1609_4 TotalLostPackets 0
scalar RSUExampleScenario.node[3].nic.mac1609_4 DroppedPacketsInMac 0
scalar RSUExampleScenario.node[3].nic.mac1609_4 TooLittleTime 0
scalar RSUExampleScenario.node[3].nic.mac1609_4 TimesIntoBackoff 15
scalar RSUExampleScenario.node[3].nic.mac1609_4 SlotsBackoff 19
scalar RSUExampleScenario.node[3].nic.mac1609_4 NumInternalContention 0
scalar RSUExampleScenario.node[3].nic.mac1609_4 totalBusyTime 0.029711
scalar RSUExampleScenario.node[3].nic.mac1609_4 retriesExceeded:count 0
attr recordingmode count
attr source org_car2x_veins_modules_mac_sigRetriesExceeded
scalar RSUExampleScenario.node[3].nic.mac1609_4 sentAcks:count 0
attr recordingmode count
attr source org_car2x_veins_modules_mac_sigSentAck
scalar RSUExampleScenario.node[3].nic.mac1609_4 sentPackets:count 15
attr recordingmode count
attr source org_car2x_veins_modules_mac_sigSentPacket
scalar RSUExampleScenario.node[3].nic.mac1609_4 collisions:count 0
attr recordingmode count
attr source org_car2x_veins_modules_mac_sigCollision
scalar RSUExampleScenario.node[3].nic.mac1609_4 channelBusy:timeavg 0.00015637368421053
attr recordingmode timeavg
attr source org_car2x_veins_modules_mac_sigChannelBusy
par RSUExampleScenario.node[3].nic typename "\"org.car2x.veins.modules.nic.Nic80211p\""
par RSUExampleScenario.node[3].nic connectionManagerName "\"connectionManager\""
par RSUExampleScenario.node[3].veinsmobility typename "\"org.car2x.veins.modules.mobility.traci.TraCIMobility\""
par RSUExampleScenario.node[3].veinsmobility notAffectedByHostState true
par RSUExampleScenario.node[3].veinsmobility x 0
par RSUExampleScenario.node[3].veinsmobility y 0
par RSUExampleScenario.node[3].veinsmobility z 0
par RSUExampleScenario.node[3].veinsmobility xOrientation 1
par RSUExampleScenario.node[3].veinsmobility yOrientation 0
par RSUExampleScenario.node[3].veinsmobility zOrientation 0
par RSUExampleScenario.node[3].veinsmobility hostPositionOffset 0m
attr unit m
par RSUExampleScenario.node[3].veinsmobility setHostSpeed false
par RSUExampleScenario.node[3].veinsmobility accidentCount 0
par RSUExampleScenario.node[3].veinsmobility accidentStart 54.3651s
attr unit s
par RSUExampleScenario.node[3].veinsmobility accidentDuration "uniform(30s, 60s)"
attr unit s
par RSUExampleScenario.node[3].veinsmobility accidentInterval "uniform(30s, 60s)"
attr unit s
scalar RSUExampleScenario.node[3].veinsmobility startTime 10
scalar RSUExampleScenario.node[3].veinsmobility totalTime 190
scalar RSUExampleScenario.node[3].veinsmobility stopTime 200
scalar RSUExampleScenario.node[3].veinsmobility minSpeed 0
scalar RSUExampleScenario.node[3].veinsmobility maxSpeed 13.999918484567
scalar RSUExampleScenario.node[3].veinsmobility totalDistance 1923.4919128977
scalar RSUExampleScenario.node[3].veinsmobility totalCO2Emission 395.42156487002
par RSUExampleScenario.node[3] typename "\"org.car2x.veins.nodes.Car\""
par RSUExampleScenario.node[3] applType "\"PandoraVehicle\""
par RSUExampleScenario.node[3] nicType "\"Nic80211p\""
par RSUExampleScenario.node[3] veinsmobilityType "\"org.car2x.veins.modules.mobility.traci.TraCIMobility\""
par RSUExampleScenario.node[4].appl typename "\"PandoraVehicle\""
par RSUExampleScenario.node[4].appl headerLength 80bit
attr unit bit
par RSUExampleScenario.node[4].appl sendBeacons false
par RSUExampleScenario.node[4].appl beaconLengthBits 256bit
attr unit bit
par RSUExampleScenario.node[4].appl beaconUserPriority 7
par RSUExampleScenario.node[4].appl beaconInterval 1s
attr unit s
par RSUExampleScenario.node[4].appl dataLengthBits 1024bit
attr unit bit
par RSUExampleScenario.node[4].appl dataOnSch false
par RSUExampleScenario.node[4].appl dataUserPriority 7
par RSUExampleScenario.node[4].appl avoidBeaconSynchronization true
par RSUExampleScenario.node[4].appl sendWSA false
par RSUExampleScenario.node[4].appl wsaLengthBits 250bit
attr unit bit
par RSUExampleScenario.node[4].appl wsaInterval 1s
attr unit s
par RSUExampleScenario.node[4].nic.phy80211p typename "\"org.car2x.veins.modules.phy.PhyLayer80211p\""
par RSUExampleScenario.node[4].nic.phy80211p recordStats false
par RSUExampleScenario.node[4].nic.phy80211p usePropagationDelay true
par RSUExampleScenario.node[4].nic.phy80211p noiseFloor -98dBm
attr unit dBm
par RSUExampleScenario.node[4].nic.phy80211p useNoiseFloor true
par RSUExampleScenario.node[4].nic.phy80211p antenna "<Antenna type=\"SampledAntenna1D\" id=\"monopole\">...</Antenna> at C:/Users/Pranitha/OneDrive/Desktop/ICDDR/Pandora/simulations/\\antenna.xml:35"
par RSUExampleScenario.node[4].nic.phy80211p antennaOffsetX 0m
attr unit m
par RSUExampleScenario.node[4].nic.phy80211p antennaOffsetY 0m
attr unit m
par RSUExampleScenario.node[4].nic.phy80211p antennaOffsetZ 1.895m
attr unit m
par RSUExampleScenario.node[4].nic.phy80211p antennaOffsetYaw 0rad
attr unit rad
par RSUExampleScenario.node[4].nic.phy80211p analogueModels "<root>...</root> at C:/Users/Pranitha/OneDrive/Desktop/ICDDR/Pandora/simulations/\\config.xml:34"
par RSUExampleScenario.node[4].nic.phy80211p decider "<root>...</root> at C:/Users/Pranitha/OneDrive/Desktop/ICDDR/Pandora/simulations/\\config.xml:34"
par RSUExampleScenario.node[4].nic.phy80211p minPowerLevel -110dBm
attr unit dBm
par RSUExampleScenario.node[4].nic.phy80211p timeRXToTX 0s
attr unit s
par RSUExampleScenario.node[4].nic.phy80211p timeRXToSleep 0s
attr unit s
par RSUExampleScenario.node[4].nic.phy80211p timeTXToRX 0s
attr unit s
par RSUExampleScenario.node[4].nic.phy80211p timeTXToSleep 0s
attr unit s
par RSUExampleScenario.node[4].nic.phy80211p timeSleepToRX 0s
attr unit s
par RSUExampleScenario.node[4].nic.phy80211p timeSleepToTX 0s
attr unit s
par RSUExampleScenario.node[4].nic.phy80211p initialRadioState 0
par RSUExampleScenario.node[4].nic.phy80211p radioMinAtt 1
par RSUExampleScenario.node[4].nic.phy80211p radioMaxAtt 0
par RSUExampleScenario.node[4].nic.phy80211p nbRadioChannels 1
par RSUExampleScenario.node[4].nic.phy80211p initialRadioChannel 0
par RSUExampleScenario.node[4].nic.phy80211p ccaThreshold -65dBm
attr unit dBm
par RSUExampleScenario.node[4].nic.phy80211p collectCollisionStatistics false
par RSUExampleScenario.node[4].nic.phy80211p allowTxDuringRx false
scalar RSUExampleScenario.node[4].nic.phy80211p busyTime 0.00014267379679144
par RSUExampleScenario.node[4].nic.mac1609_4 typename "\"org.car2x.veins.modules.mac.ieee80211p.Mac1609_4\""
par RSUExampleScenario.node[4].nic.mac1609_4 notAffectedByHostState false
par RSUExampleScenario.node[4].nic.mac1609_4 headerLength 0bit
attr unit bit
par RSUExampleScenario.node[4].nic.mac1609_4 address "\"auto\""
par RSUExampleScenario.node[4].nic.mac1609_4 useServiceChannel false
par RSUExampleScenario.node[4].nic.mac1609_4 serviceChannel 1
par RSUExampleScenario.node[4].nic.mac1609_4 bitrate 6000000bps
attr unit bps
par RSUExampleScenario.node[4].nic.mac1609_4 syncOffset 0.0003s
attr unit s
par RSUExampleScenario.node[4].nic.mac1609_4 txPower 20mW
attr unit mW
par RSUExampleScenario.node[4].nic.mac1609_4 queueSize 0
par RSUExampleScenario.node[4].nic.mac1609_4 dot11RTSThreshold 12000bit
attr unit bit
par RSUExampleScenario.node[4].nic.mac1609_4 dot11ShortRetryLimit 7
par RSUExampleScenario.node[4].nic.mac1609_4 dot11LongRetryLimit 4
par RSUExampleScenario.node[4].nic.mac1609_4 ackLength 112bit
attr unit bit
par RSUExampleScenario.node[4].nic.mac1609_4 useAcks false
par RSUExampleScenario.node[4].nic.mac1609_4 frameErrorRate 0
par RSUExampleScenario.node[4].nic.mac1609_4 ackErrorRate 0
scalar RSUExampleScenario.node[4].nic.mac1609_4 ReceivedUnicastPackets 0
scalar RSUExampleScenario.node[4].nic.mac1609_4 ReceivedBroadcasts 115
scalar RSUExampleScenario.node[4].nic.mac1609_4 SentPackets 13
scalar RSUExampleScenario.node[4].nic.mac1609_4 SentAcknowledgements 0
scalar RSUExampleScenario.node[4].nic.mac1609_4 RetriesExceeded 0
scalar RSUExampleScenario.node[4].nic.mac1609_4 SNIRLostPackets 0
scalar RSUExampleScenario.node[4].nic.mac1609_4 RXTXLostPackets 0
scalar RSUExampleScenario.node[4].nic.mac1609_4 TotalLostPackets 0
scalar RSUExampleScenario.node[4].nic.mac1609_4 DroppedPacketsInMac 0
scalar RSUExampleScenario.node[4].nic.mac1609_4 TooLittleTime 0
scalar RSUExampleScenario.node[4].nic.mac1609_4 TimesIntoBackoff 13
scalar RSUExampleScenario.node[4].nic.mac1609_4 SlotsBackoff 19
scalar RSUExampleScenario.node[4].nic.mac1609_4 NumInternalContention 0
scalar RSUExampleScenario.node[4].nic.mac1609_4 totalBusyTime 0.029709
scalar RSUExampleScenario.node[4].nic.mac1609_4 retriesExceeded:count 0
attr recordingmode count
attr source org_car2x_veins_modules_mac_sigRetriesExceeded
scalar RSUExampleScenario.node[4].nic.mac1609_4 sentAcks:count 0
attr recordingmode count
attr source org_car2x_veins_modules_mac_sigSentAck
scalar RSUExampleScenario.node[4].nic.mac1609_4 sentPackets:count 13
attr recordingmode count
attr source org_car2x_veins_modules_mac_sigSentPacket
scalar RSUExampleScenario.node[4].nic.mac1609_4 collisions:count 0
attr recordingmode count
attr source org_car2x_veins_modules_mac_sigCollision
scalar RSUExampleScenario.node[4].nic.mac1609_4 channelBusy:timeavg 0.00015887165775401
attr recordingmode timeavg
attr source org_car2x_veins_modules_mac_sigChannelBusy
par RSUExampleScenario.node[4].nic typename "\"org.car2x.veins.modules.nic.Nic80211p\""
par RSUExampleScenario.node[4].nic connectionManagerName "\"connectionManager\""
par RSUExampleScenario.node[4].veinsmobility typename "\"org.car2x.veins.modules.mobility.traci.TraCIMobility\""
par RSUExampleScenario.node[4].veinsmobility notAffectedByHostState true
par RSUExampleScenario.node[4].veinsmobility x 0
par RSUExampleScenario.node[4].veinsmobility y 0
par RSUExampleScenario.node[4].veinsmobility z 0
par RSUExampleScenario.node[4].veinsmobility xOrientation 1
par RSUExampleScenario.node[4].veinsmobility yOrientation 0
par RSUExampleScenario.node[4].veinsmobility zOrientation 0
par RSUExampleScenario.node[4].veinsmobility hostPositionOffset 0m
attr unit m
par RSUExampleScenario.node[4].veinsmobility setHostSpeed false
par RSUExampleScenario.node[4].veinsmobility accidentCount 0
par RSUExampleScenario.node[4].veinsmobility accidentStart 55.0824s
attr unit s
par RSUExampleScenario.node[4].veinsmobility accidentDuration "uniform(30s, 60s)"
attr unit s
par RSUExampleScenario.node[4].veinsmobility accidentInterval "uniform(30s, 60s)"
attr unit s
scalar RSUExampleScenario.node[4].veinsmobility startTime 13
scalar RSUExampleScenario.node[4].veinsmobility totalTime 187
scalar RSUExampleScenario.node[4].veinsmobility stopTime 200
scalar RSUExampleScenario.node[4].veinsmobility minSpeed 0
scalar RSUExampleScenario.node[4].veinsmobility maxSpeed 13.999156328384
scalar RSUExampleScenario.node[4].veinsmobility totalDistance 1905.0462666915
scalar RSUExampleScenario.node[4].veinsmobility totalCO2Emission 386.28758823462
par RSUExampleScenario.node[4] typename "\"org.car2x.veins.nodes.Car\""
par RSUExampleScenario.node[4] applType "\"PandoraVehicle\""
par RSUExampleScenario.node[4] nicType "\"Nic80211p\""
par RSUExampleScenario.node[4] veinsmobilityType "\"org.car2x.veins.modules.mobility.traci.TraCIMobility\""
par RSUExampleScenario.node[5].appl typename "\"PandoraVehicle\""
par RSUExampleScenario.node[5].appl headerLength 80bit
attr unit bit
par RSUExampleScenario.node[5].appl sendBeacons false
par RSUExampleScenario.node[5].appl beaconLengthBits 256bit
attr unit bit
par RSUExampleScenario.node[5].appl beaconUserPriority 7
par RSUExampleScenario.node[5].appl beaconInterval 1s
attr unit s
par RSUExampleScenario.node[5].appl dataLengthBits 1024bit
attr unit bit
par RSUExampleScenario.node[5].appl dataOnSch false
par RSUExampleScenario.node[5].appl dataUserPriority 7
par RSUExampleScenario.node[5].appl avoidBeaconSynchronization true
par RSUExampleScenario.node[5].appl sendWSA false
par RSUExampleScenario.node[5].appl wsaLengthBits 250bit
attr unit bit
par RSUExampleScenario.node[5].appl wsaInterval 1s
attr unit s
par RSUExampleScenario.node[5].nic.phy80211p typename "\"org.car2x.veins.modules.phy.PhyLayer80211p\""
par RSUExampleScenario.node[5].nic.phy80211p recordStats false
par RSUExampleScenario.node[5].nic.phy80211p usePropagationDelay true
par RSUExampleScenario.node[5].nic.phy80211p noiseFloor -98dBm
attr unit dBm
par RSUExampleScenario.node[5].nic.phy80211p useNoiseFloor true
par RSUExampleScenario.node[5].nic.phy80211p antenna "<Antenna type=\"SampledAntenna1D\" id=\"monopole\">...</Antenna> at C:/Users/Pranitha/OneDrive/Desktop/ICDDR/Pandora/simulations/\\antenna.xml:35"
par RSUExampleScenario.node[5].nic.phy80211p antennaOffsetX 0m
attr unit m
par RSUExampleScenario.node[5].nic.phy80211p antennaOffsetY 0m
attr unit m
par RSUExampleScenario.node[5].nic.phy80211p antennaOffsetZ 1.895m
attr unit m
par RSUExampleScenario.node[5].nic.phy80211p antennaOffsetYaw 0rad
attr unit rad
par RSUExampleScenario.node[5].nic.phy80211p analogueModels "<root>...</root> at C:/Users/Pranitha/OneDrive/Desktop/ICDDR/Pandora/simulations/\\config.xml:34"
par RSUExampleScenario.node[5].nic.phy80211p decider "<root>...</root> at C:/Users/Pranitha/OneDrive/Desktop/ICDDR/Pandora/simulations/\\config.xml:34"
par RSUExampleScenario.node[5].nic.phy80211p minPowerLevel -110dBm
attr unit dBm
par RSUExampleScenario.node[5].nic.phy80211p timeRXToTX 0s
attr unit s
par RSUExampleScenario.node[5].nic.phy80211p timeRXToSleep 0s
attr unit s
par RSUExampleScenario.node[5].nic.phy80211p timeTXToRX 0s
attr unit s
par RSUExampleScenario.node[5].nic.phy80211p timeTXToSleep 0s
attr unit s
par RSUExampleScenario.node[5].nic.phy80211p timeSleepToRX 0s
attr unit s
par RSUExampleScenario.node[5].nic.phy80211p timeSleepToTX 0s
attr unit s
par RSUExampleScenario.node[5].nic.phy80211p initialRadioState 0
par RSUExampleScenario.node[5].nic.phy80211p radioMinAtt 1
par RSUExampleScenario.node[5].nic.phy80211p radioMaxAtt 0
par RSUExampleScenario.node[5].nic.phy80211p nbRadioChannels 1
par RSUExampleScenario.node[5].nic.phy80211p initialRadioChannel 0
par RSUExampleScenario.node[5].nic.phy80211p ccaThreshold -65dBm
attr unit dBm
par RSUExampleScenario.node[5].nic.phy80211p collectCollisionStatistics false
par RSUExampleScenario.node[5].nic.phy80211p allowTxDuringRx false
scalar RSUExampleScenario.node[5].nic.phy80211p busyTime 0.00014626086956522
par RSUExampleScenario.node[5].nic.mac1609_4 typename "\"org.car2x.veins.modules.mac.ieee80211p.Mac1609_4\""
par RSUExampleScenario.node[5].nic.mac1609_4 notAffectedByHostState false
par RSUExampleScenario.node[5].nic.mac1609_4 headerLength 0bit
attr unit bit
par RSUExampleScenario.node[5].nic.mac1609_4 address "\"auto\""
par RSUExampleScenario.node[5].nic.mac1609_4 useServiceChannel false
par RSUExampleScenario.node[5].nic.mac1609_4 serviceChannel 1
par RSUExampleScenario.node[5].nic.mac1609_4 bitrate 6000000bps
attr unit bps
par RSUExampleScenario.node[5].nic.mac1609_4 syncOffset 0.0003s
attr unit s
par RSUExampleScenario.node[5].nic.mac1609_4 txPower 20mW
attr unit mW
par RSUExampleScenario.node[5].nic.mac1609_4 queueSize 0
par RSUExampleScenario.node[5].nic.mac1609_4 dot11RTSThreshold 12000bit
attr unit bit
par RSUExampleScenario.node[5].nic.mac1609_4 dot11ShortRetryLimit 7
par RSUExampleScenario.node[5].nic.mac1609_4 dot11LongRetryLimit 4
par RSUExampleScenario.node[5].nic.mac1609_4 ackLength 112bit
attr unit bit
par RSUExampleScenario.node[5].nic.mac1609_4 useAcks false
par RSUExampleScenario.node[5].nic.mac1609_4 frameErrorRate 0
par RSUExampleScenario.node[5].nic.mac1609_4 ackErrorRate 0
scalar RSUExampleScenario.node[5].nic.mac1609_4 ReceivedUnicastPackets 0
scalar RSUExampleScenario.node[5].nic.mac1609_4 ReceivedBroadcasts 116
scalar RSUExampleScenario.node[5].nic.mac1609_4 SentPackets 12
scalar RSUExampleScenario.node[5].nic.mac1609_4 SentAcknowledgements 0
scalar RSUExampleScenario.node[5].nic.mac1609_4 RetriesExceeded 0
scalar RSUExampleScenario.node[5].nic.mac1609_4 SNIRLostPackets 0
scalar RSUExampleScenario.node[5].nic.mac1609_4 RXTXLostPackets 0
scalar RSUExampleScenario.node[5].nic.mac1609_4 TotalLostPackets 0
scalar RSUExampleScenario.node[5].nic.mac1609_4 DroppedPacketsInMac 0
scalar RSUExampleScenario.node[5].nic.mac1609_4 TooLittleTime 0
scalar RSUExampleScenario.node[5].nic.mac1609_4 TimesIntoBackoff 12
scalar RSUExampleScenario.node[5].nic.mac1609_4 SlotsBackoff 12
scalar RSUExampleScenario.node[5].nic.mac1609_4 NumInternalContention 0
scalar RSUExampleScenario.node[5].nic.mac1609_4 totalBusyTime 0.029708
scalar RSUExampleScenario.node[5].nic.mac1609_4 retriesExceeded:count 0
attr recordingmode count
attr source org_car2x_veins_modules_mac_sigRetriesExceeded
scalar RSUExampleScenario.node[5].nic.mac1609_4 sentAcks:count 0
attr recordingmode count
attr source org_car2x_veins_modules_mac_sigSentAck
scalar RSUExampleScenario.node[5].nic.mac1609_4 sentPackets:count 12
attr recordingmode count
attr source org_car2x_veins_modules_mac_sigSentPacket
scalar RSUExampleScenario.node[5].nic.mac1609_4 collisions:count 0
attr recordingmode count
attr source org_car2x_veins_modules_mac_sigCollision
scalar RSUExampleScenario.node[5].nic.mac1609_4 channelBusy:timeavg 0.00016145652173913
attr recordingmode timeavg
attr source org_car2x_veins_modules_mac_sigChannelBusy
par RSUExampleScenario.node[5].nic typename "\"org.car2x.veins.modules.nic.Nic80211p\""
par RSUExampleScenario.node[5].nic connectionManagerName "\"connectionManager\""
par RSUExampleScenario.node[5].veinsmobility typename "\"org.car2x.veins.modules.mobility.traci.TraCIMobility\""
par RSUExampleScenario.node[5].veinsmobility notAffectedByHostState true
par RSUExampleScenario.node[5].veinsmobility x 0
par RSUExampleScenario.node[5].veinsmobility y 0
par RSUExampleScenario.node[5].veinsmobility z 0
par RSUExampleScenario.node[5].veinsmobility xOrientation 1
par RSUExampleScenario.node[5].veinsmobility yOrientation 0
par RSUExampleScenario.node[5].veinsmobility zOrientation 0
par RSUExampleScenario.node[5].veinsmobility hostPositionOffset 0m
attr unit m
par RSUExampleScenario.node[5].veinsmobility setHostSpeed false
par RSUExampleScenario.node[5].veinsmobility accidentCount 0
par RSUExampleScenario.node[5].veinsmobility accidentStart 41.0472s
attr unit s
par RSUExampleScenario.node[5].veinsmobility accidentDuration "uniform(30s, 60s)"
attr unit s
par RSUExampleScenario.node[5].veinsmobility accidentInterval "uniform(30s, 60s)"
attr unit s
scalar RSUExampleScenario.node[5].veinsmobility startTime 16
scalar RSUExampleScenario.node[5].veinsmobility totalTime 184
scalar RSUExampleScenario.node[5].veinsmobility stopTime 200
scalar RSUExampleScenario.node[5].veinsmobility minSpeed 0
scalar RSUExampleScenario.node[5].veinsmobility maxSpeed 13.999785439738
scalar RSUExampleScenario.node[5].veinsmobility totalDistance 1884.9091049965
scalar RSUExampleScenario.node[5].veinsmobility totalCO2Emission 385.35065116539
par RSUExampleScenario.node[5] typename "\"org.car2x.veins.nodes.Car\""
par RSUExampleScenario.node[5] applType "\"PandoraVehicle\""
par RSUExampleScenario.node[5] nicType "\"Nic80211p\""
par RSUExampleScenario.node[5] veinsmobilityType "\"org.car2x.veins.modules.mobility.traci.TraCIMobility\""
par RSUExampleScenario.node[6].appl typename "\"PandoraVehicle\""
par RSUExampleScenario.node[6].appl headerLength 80bit
attr unit bit
par RSUExampleScenario.node[6].appl sendBeacons false
par RSUExampleScenario.node[6].appl beaconLengthBits 256bit
attr unit bit
par RSUExampleScenario.node[6].appl beaconUserPriority 7
par RSUExampleScenario.node[6].appl beaconInterval 1s
attr unit s
par RSUExampleScenario.node[6].appl dataLengthBits 1024bit
attr unit bit
par RSUExampleScenario.node[6].appl dataOnSch false
par RSUExampleScenario.node[6].appl dataUserPriority 7
par RSUExampleScenario.node[6].appl avoidBeaconSynchronization true
par RSUExampleScenario.node[6].appl sendWSA false
par RSUExampleScenario.node[6].appl wsaLengthBits 250bit
attr unit bit
par RSUExampleScenario.node[6].appl wsaInterval 1s
attr unit s
par RSUExampleScenario.node[6].nic.phy80211p typename "\"org.car2x.veins.modules.phy.PhyLayer80211p\""
par RSUExampleScenario.node[6].nic.phy80211p recordStats false
par RSUExampleScenario.node[6].nic.phy80211p usePropagationDelay true
par RSUExampleScenario.node[6].nic.phy80211p noiseFloor -98dBm
attr unit dBm
par RSUExampleScenario.node[6].nic.phy80211p useNoiseFloor true
par RSUExampleScenario.node[6].nic.phy80211p antenna "<Antenna type=\"SampledAntenna1D\" id=\"monopole\">...</Antenna> at C:/Users/Pranitha/OneDrive/Desktop/ICDDR/Pandora/simulations/\\antenna.xml:35"
par RSUExampleScenario.node[6].nic.phy80211p antennaOffsetX 0m
attr unit m
par RSUExampleScenario.node[6].nic.phy80211p antennaOffsetY 0m
attr unit m
par RSUExampleScenario.node[6].nic.phy80211p antennaOffsetZ 1.895m
attr unit m
par RSUExampleScenario.node[6].nic.phy80211p antennaOffsetYaw 0rad
attr unit rad
par RSUExampleScenario.node[6].nic.phy80211p analogueModels "<root>...</root> at C:/Users/Pranitha/OneDrive/Desktop/ICDDR/Pandora/simulations/\\config.xml:34"
par RSUExampleScenario.node[6].nic.phy80211p decider "<root>...</root> at C:/Users/Pranitha/OneDrive/Desktop/ICDDR/Pandora/simulations/\\config.xml:34"
par RSUExampleScenario.node[6].nic.phy80211p minPowerLevel -110dBm
attr unit dBm
par RSUExampleScenario.node[6].nic.phy80211p timeRXToTX 0s
attr unit s
par RSUExampleScenario.node[6].nic.phy80211p timeRXToSleep 0s
attr unit s
par RSUExampleScenario.node[6].nic.phy80211p timeTXToRX 0s
attr unit s
par RSUExampleScenario.node[6].nic.phy80211p timeTXToSleep 0s
attr unit s
par RSUExampleScenario.node[6].nic.phy80211p timeSleepToRX 0s
attr unit s
par RSUExampleScenario.node[6].nic.phy80211p timeSleepToTX 0s
attr unit s
par RSUExampleScenario.node[6].nic.phy80211p initialRadioState 0
par RSUExampleScenario.node[6].nic.phy80211p radioMinAtt 1
par RSUExampleScenario.node[6].nic.phy80211p radioMaxAtt 0
par RSUExampleScenario.node[6].nic.phy80211p nbRadioChannels 1
par RSUExampleScenario.node[6].nic.phy80211p initialRadioChannel 0
par RSUExampleScenario.node[6].nic.phy80211p ccaThreshold -65dBm
attr unit dBm
par RSUExampleScenario.node[6].nic.phy80211p collectCollisionStatistics false
par RSUExampleScenario.node[6].nic.phy80211p allowTxDuringRx false
scalar RSUExampleScenario.node[6].nic.phy80211p busyTime 0.00015124861878453
par RSUExampleScenario.node[6].nic.mac1609_4 typename "\"org.car2x.veins.modules.mac.ieee80211p.Mac1609_4\""
par RSUExampleScenario.node[6].nic.mac1609_4 notAffectedByHostState false
par RSUExampleScenario.node[6].nic.mac1609_4 headerLength 0bit
attr unit bit
par RSUExampleScenario.node[6].nic.mac1609_4 address "\"auto\""
par RSUExampleScenario.node[6].nic.mac1609_4 useServiceChannel false
par RSUExampleScenario.node[6].nic.mac1609_4 serviceChannel 1
par RSUExampleScenario.node[6].nic.mac1609_4 bitrate 6000000bps
attr unit bps
par RSUExampleScenario.node[6].nic.mac1609_4 syncOffset 0.0003s
attr unit s
par RSUExampleScenario.node[6].nic.mac1609_4 txPower 20mW
attr unit mW
par RSUExampleScenario.node[6].nic.mac1609_4 queueSize 0
par RSUExampleScenario.node[6].nic.mac1609_4 dot11RTSThreshold 12000bit
attr unit bit
par RSUExampleScenario.node[6].nic.mac1609_4 dot11ShortRetryLimit 7
par RSUExampleScenario.node[6].nic.mac1609_4 dot11LongRetryLimit 4
par RSUExampleScenario.node[6].nic.mac1609_4 ackLength 112bit
attr unit bit
par RSUExampleScenario.node[6].nic.mac1609_4 useAcks false
par RSUExampleScenario.node[6].nic.mac1609_4 frameErrorRate 0
par RSUExampleScenario.node[6].nic.mac1609_4 ackErrorRate 0
scalar RSUExampleScenario.node[6].nic.mac1609_4 ReceivedUnicastPackets 0
scalar RSUExampleScenario.node[6].nic.mac1609_4 ReceivedBroadcasts 118
scalar RSUExampleScenario.node[6].nic.mac1609_4 SentPackets 10
scalar RSUExampleScenario.node[6].nic.mac1609_4 SentAcknowledgements 0
scalar RSUExampleScenario.node[6].nic.mac1609_4 RetriesExceeded 0
scalar RSUExampleScenario.node[6].nic.mac1609_4 SNIRLostPackets 0
scalar RSUExampleScenario.node[6].nic.mac1609_4 RXTXLostPackets 0
scalar RSUExampleScenario.node[6].nic.mac1609_4 TotalLostPackets 0
scalar RSUExampleScenario.node[6].nic.mac1609_4 DroppedPacketsInMac 0
scalar RSUExampleScenario.node[6].nic.mac1609_4 TooLittleTime 0
scalar RSUExampleScenario.node[6].nic.mac1609_4 TimesIntoBackoff 10
scalar RSUExampleScenario.node[6].nic.mac1609_4 SlotsBackoff 14
scalar RSUExampleScenario.node[6].nic.mac1609_4 NumInternalContention 0
scalar RSUExampleScenario.node[6].nic.mac1609_4 totalBusyTime 0.029706
scalar RSUExampleScenario.node[6].nic.mac1609_4 retriesExceeded:count 0
attr recordingmode count
attr source org_car2x_veins_modules_mac_sigRetriesExceeded
scalar RSUExampleScenario.node[6].nic.mac1609_4 sentAcks:count 0
attr recordingmode count
attr source org_car2x_veins_modules_mac_sigSentAck
scalar RSUExampleScenario.node[6].nic.mac1609_4 sentPackets:count 10
attr recordingmode count
attr source org_car2x_veins_modules_mac_sigSentPacket
scalar RSUExampleScenario.node[6].nic.mac1609_4 collisions:count 0
attr recordingmode count
attr source org_car2x_veins_modules_mac_sigCollision
scalar RSUExampleScenario.node[6].nic.mac1609_4 channelBusy:timeavg 0.00016412154696133
attr recordingmode timeavg
attr source org_car2x_veins_modules_mac_sigChannelBusy
par RSUExampleScenario.node[6].nic typename "\"org.car2x.veins.modules.nic.Nic80211p\""
par RSUExampleScenario.node[6].nic connectionManagerName "\"connectionManager\""
par RSUExampleScenario.node[6].veinsmobility typename "\"org.car2x.veins.modules.mobility.traci.TraCIMobility\""
par RSUExampleScenario.node[6].veinsmobility notAffectedByHostState true
par RSUExampleScenario.node[6].veinsmobility x 0
par RSUExampleScenario.node[6].veinsmobility y 0
par RSUExampleScenario.node[6].veinsmobility z 0
par RSUExampleScenario.node[6].veinsmobility xOrientation 1
par RSUExampleScenario.node[6].veinsmobility yOrientation 0
par RSUExampleScenario.node[6].veinsmobility zOrientation 0
par RSUExampleScenario.node[6].veinsmobility hostPositionOffset 0m
attr unit m
par RSUExampleScenario.node[6].veinsmobility setHostSpeed false
par RSUExampleScenario.node[6].veinsmobility accidentCount 0
par RSUExampleScenario.node[6].veinsmobility accidentStart 56.1026s
attr unit s
par RSUExampleScenario.node[6].veinsmobility accidentDuration "uniform(30s, 60s)"
attr unit s
par RSUExampleScenario.node[6].veinsmobility accidentInterval "uniform(30s, 60s)"
attr unit s
scalar RSUExampleScenario.node[6].veinsmobility startTime 19
scalar RSUExampleScenario.node[6].veinsmobility totalTime 181
scalar RSUExampleScenario.node[6].veinsmobility stopTime 200
scalar RSUExampleScenario.node[6].veinsmobility minSpeed 0
scalar RSUExampleScenario.node[6].veinsmobility maxSpeed 13.998803261435
scalar RSUExampleScenario.node[6].veinsmobility totalDistance 1866.6563993862
scalar RSUExampleScenario.node[6].veinsmobility totalCO2Emission 380.72839168621
par RSUExampleScenario.node[6] typename "\"org.car2x.veins.nodes.Car\""
par RSUExampleScenario.node[6] applType "\"PandoraVehicle\""
par RSUExampleScenario.node[6] nicType "\"Nic80211p\""
par RSUExampleScenario.node[6] veinsmobilityType "\"org.car2x.veins.modules.mobility.traci.TraCIMobility\""
par RSUExampleScenario.node[7].appl typename "\"PandoraVehicle\""
par RSUExampleScenario.node[7].appl headerLength 80bit
attr unit bit
par RSUExampleScenario.node[7].appl sendBeacons false
par RSUExampleScenario.node[7].appl beaconLengthBits 256bit
attr unit bit
par RSUExampleScenario.node[7].appl beaconUserPriority 7
par RSUExampleScenario.node[7].appl beaconInterval 1s
attr unit s
par RSUExampleScenario.node[7].appl dataLengthBits 1024bit
attr unit bit
par RSUExampleScenario.node[7].appl dataOnSch false
par RSUExampleScenario.node[7].appl dataUserPriority 7
par RSUExampleScenario.node[7].appl avoidBeaconSynchronization true
par RSUExampleScenario.node[7].appl sendWSA false
par RSUExampleScenario.node[7].appl wsaLengthBits 250bit
attr unit bit
par RSUExampleScenario.node[7].appl wsaInterval 1s
attr unit s
par RSUExampleScenario.node[7].nic.phy80211p typename "\"org.car2x.veins.modules.phy.PhyLayer80211p\""
par RSUExampleScenario.node[7].nic.phy80211p recordStats false
par RSUExampleScenario.node[7].nic.phy80211p usePropagationDelay true
par RSUExampleScenario.node[7].nic.phy80211p noiseFloor -98dBm
attr unit dBm
par RSUExampleScenario.node[7].nic.phy80211p useNoiseFloor true
par RSUExampleScenario.node[7].nic.phy80211p antenna "<Antenna type=\"SampledAntenna1D\" id=\"monopole\">...</Antenna> at C:/Users/Pranitha/OneDrive/Desktop/ICDDR/Pandora/simulations/\\antenna.xml:35"
par RSUExampleScenario.node[7].nic.phy80211p antennaOffsetX 0m
attr unit m
par RSUExampleScenario.node[7].nic.phy80211p antennaOffsetY 0m
attr unit m
par RSUExampleScenario.node[7].nic.phy80211p antennaOffsetZ 1.895m
attr unit m
par RSUExampleScenario.node[7].nic.phy80211p antennaOffsetYaw 0rad
attr unit rad
par RSUExampleScenario.node[7].nic.phy80211p analogueModels "<root>...</root> at C:/Users/Pranitha/OneDrive/Desktop/ICDDR/Pandora/simulations/\\config.xml:34"
par RSUExampleScenario.node[7].nic.phy80211p decider "<root>...</root> at C:/Users/Pranitha/OneDrive/Desktop/ICDDR/Pandora/simulations/\\config.xml:34"
par RSUExampleScenario.node[7].nic.phy80211p minPowerLevel -110dBm
attr unit dBm
par RSUExampleScenario.node[7].nic.phy80211p timeRXToTX 0s
attr unit s
par RSUExampleScenario.node[7].nic.phy80211p timeRXToSleep 0s
attr unit s
par RSUExampleScenario.node[7].nic.phy80211p timeTXToRX 0s
attr unit s
par RSUExampleScenario.node[7].nic.phy80211p timeTXToSleep 0s
attr unit s
par RSUExampleScenario.node[7].nic.phy80211p timeSleepToRX 0s
attr unit s
par RSUExampleScenario.node[7].nic.phy80211p timeSleepToTX 0s
attr unit s
par RSUExampleScenario.node[7].nic.phy80211p initialRadioState 0
par RSUExampleScenario.node[7].nic.phy80211p radioMinAtt 1
par RSUExampleScenario.node[7].nic.phy80211p radioMaxAtt 0
par RSUExampleScenario.node[7].nic.phy80211p nbRadioChannels 1
par RSUExampleScenario.node[7].nic.phy80211p initialRadioChannel 0
par RSUExampleScenario.node[7].nic.phy80211p ccaThreshold -65dBm
attr unit dBm
par RSUExampleScenario.node[7].nic.phy80211p collectCollisionStatistics false
par RSUExampleScenario.node[7].nic.phy80211p allowTxDuringRx false
scalar RSUExampleScenario.node[7].nic.phy80211p busyTime 0.00015640449438202
par RSUExampleScenario.node[7].nic.mac1609_4 typename "\"org.car2x.veins.modules.mac.ieee80211p.Mac1609_4\""
par RSUExampleScenario.node[7].nic.mac1609_4 notAffectedByHostState false
par RSUExampleScenario.node[7].nic.mac1609_4 headerLength 0bit
attr unit bit
par RSUExampleScenario.node[7].nic.mac1609_4 address "\"auto\""
par RSUExampleScenario.node[7].nic.mac1609_4 useServiceChannel false
par RSUExampleScenario.node[7].nic.mac1609_4 serviceChannel 1
par RSUExampleScenario.node[7].nic.mac1609_4 bitrate 6000000bps
attr unit bps
par RSUExampleScenario.node[7].nic.mac1609_4 syncOffset 0.0003s
attr unit s
par RSUExampleScenario.node[7].nic.mac1609_4 txPower 20mW
attr unit mW
par RSUExampleScenario.node[7].nic.mac1609_4 queueSize 0
par RSUExampleScenario.node[7].nic.mac1609_4 dot11RTSThreshold 12000bit
attr unit bit
par RSUExampleScenario.node[7].nic.mac1609_4 dot11ShortRetryLimit 7
par RSUExampleScenario.node[7].nic.mac1609_4 dot11LongRetryLimit 4
par RSUExampleScenario.node[7].nic.mac1609_4 ackLength 112bit
attr unit bit
par RSUExampleScenario.node[7].nic.mac1609_4 useAcks false
par RSUExampleScenario.node[7].nic.mac1609_4 frameErrorRate 0
par RSUExampleScenario.node[7].nic.mac1609_4 ackErrorRate 0
scalar RSUExampleScenario.node[7].nic.mac1609_4 ReceivedUnicastPackets 0
scalar RSUExampleScenario.node[7].nic.mac1609_4 ReceivedBroadcasts 120
scalar RSUExampleScenario.node[7].nic.mac1609_4 SentPackets 8
scalar RSUExampleScenario.node[7].nic.mac1609_4 SentAcknowledgements 0
scalar RSUExampleScenario.node[7].nic.mac1609_4 RetriesExceeded 0
scalar RSUExampleScenario.node[7].nic.mac1609_4 SNIRLostPackets 0
scalar RSUExampleScenario.node[7].nic.mac1609_4 RXTXLostPackets 0
scalar RSUExampleScenario.node[7].nic.mac1609_4 TotalLostPackets 0
scalar RSUExampleScenario.node[7].nic.mac1609_4 DroppedPacketsInMac 0
scalar RSUExampleScenario.node[7].nic.mac1609_4 TooLittleTime 0
scalar RSUExampleScenario.node[7].nic.mac1609_4 TimesIntoBackoff 8
scalar RSUExampleScenario.node[7].nic.mac1609_4 SlotsBackoff 12
scalar RSUExampleScenario.node[7].nic.mac1609_4 NumInternalContention 0
scalar RSUExampleScenario.node[7].nic.mac1609_4 totalBusyTime 0.029704
scalar RSUExampleScenario.node[7].nic.mac1609_4 retriesExceeded:count 0
attr recordingmode count
attr source org_car2x_veins_modules_mac_sigRetriesExceeded
scalar RSUExampleScenario.node[7].nic.mac1609_4 sentAcks:count 0
attr recordingmode count
attr source org_car2x_veins_modules_mac_sigSentAck
scalar RSUExampleScenario.node[7].nic.mac1609_4 sentPackets:count 8
attr recordingmode count
attr source org_car2x_veins_modules_mac_sigSentPacket
scalar RSUExampleScenario.node[7].nic.mac1609_4 collisions:count 0
attr recordingmode count
attr source org_car2x_veins_modules_mac_sigCollision
scalar RSUExampleScenario.node[7].nic.mac1609_4 channelBusy:timeavg 0.00016687640449438
attr recordingmode timeavg
attr source org_car2x_veins_modules_mac_sigChannelBusy
par RSUExampleScenario.node[7].nic typename "\"org.car2x.veins.modules.nic.Nic80211p\""
par RSUExampleScenario.node[7].nic connectionManagerName "\"connectionManager\""
par RSUExampleScenario.node[7].veinsmobility typename "\"org.car2x.veins.modules.mobility.traci.TraCIMobility\""
par RSUExampleScenario.node[7].veinsmobility notAffectedByHostState true
par RSUExampleScenario.node[7].veinsmobility x 0
par RSUExampleScenario.node[7].veinsmobility y 0
par RSUExampleScenario.node[7].veinsmobility z 0
par RSUExampleScenario.node[7].veinsmobility xOrientation 1
par RSUExampleScenario.node[7].veinsmobility yOrientation 0
par RSUExampleScenario.node[7].veinsmobility zOrientation 0
par RSUExampleScenario.node[7].veinsmobility hostPositionOffset 0m
attr unit m
par RSUExampleScenario.node[7].veinsmobility setHostSpeed false
par RSUExampleScenario.node[7].veinsmobility accidentCount 0
par RSUExampleScenario.node[7].veinsmobility accidentStart 45.6143s
attr unit s
par RSUExampleScenario.node[7].veinsmobility accidentDuration "uniform(30s, 60s)"
attr unit s
par RSUExampleScenario.node[7].veinsmobility accidentInterval "uniform(30s, 60s)"
attr unit s
scalar RSUExampleScenario.node[7].veinsmobility startTime 22
scalar RSUExampleScenario.node[7].veinsmobility totalTime 178
scalar RSUExampleScenario.node[7].veinsmobility stopTime 200
scalar RSUExampleScenario.node[7].veinsmobility minSpeed 0
scalar RSUExampleScenario.node[7].veinsmobility maxSpeed 13.999107769125
scalar RSUExampleScenario.node[7].veinsmobility totalDistance 1841.4610365278
scalar RSUExampleScenario.node[7].veinsmobility totalCO2Emission 368.37020111544
par RSUExampleScenario.node[7] typename "\"org.car2x.veins.nodes.Car\""
par RSUExampleScenario.node[7] applType "\"PandoraVehicle\""
par RSUExampleScenario.node[7] nicType "\"Nic80211p\""
par RSUExampleScenario.node[7] veinsmobilityType "\"org.car2x.veins.modules.mobility.traci.TraCIMobility\""
par RSUExampleScenario.node[8].appl typename "\"PandoraVehicle\""
par RSUExampleScenario.node[8].appl headerLength 80bit
attr unit bit
par RSUExampleScenario.node[8].appl sendBeacons false
par RSUExampleScenario.node[8].appl beaconLengthBits 256bit
attr unit bit
par RSUExampleScenario.node[8].appl beaconUserPriority 7
par RSUExampleScenario.node[8].appl beaconInterval 1s
attr unit s
par RSUExampleScenario.node[8].appl dataLengthBits 1024bit
attr unit bit
par RSUExampleScenario.node[8].appl dataOnSch false
par RSUExampleScenario.node[8].appl dataUserPriority 7
par RSUExampleScenario.node[8].appl avoidBeaconSynchronization true
par RSUExampleScenario.node[8].appl sendWSA false
par RSUExampleScenario.node[8].appl wsaLengthBits 250bit
attr unit bit
par RSUExampleScenario.node[8].appl wsaInterval 1s
attr unit s
par RSUExampleScenario.node[8].nic.phy80211p typename "\"org.car2x.veins.modules.phy.PhyLayer80211p\""
par RSUExampleScenario.node[8].nic.phy80211p recordStats false
par RSUExampleScenario.node[8].nic.phy80211p usePropagationDelay true
par RSUExampleScenario.node[8].nic.phy80211p noiseFloor -98dBm
attr unit dBm
par RSUExampleScenario.node[8].nic.phy80211p useNoiseFloor true
par RSUExampleScenario.node[8].nic.phy80211p antenna "<Antenna type=\"SampledAntenna1D\" id=\"monopole\">...</Antenna> at C:/Users/Pranitha/OneDrive/Desktop/ICDDR/Pandora/simulations/\\antenna.xml:35"
par RSUExampleScenario.node[8].nic.phy80211p antennaOffsetX 0m
attr unit m
par RSUExampleScenario.node[8].nic.phy80211p antennaOffsetY 0m
attr unit m
par RSUExampleScenario.node[8].nic.phy80211p antennaOffsetZ 1.895m
attr unit m
par RSUExampleScenario.node[8].nic.phy80211p antennaOffsetYaw 0rad
attr unit rad
par RSUExampleScenario.node[8].nic.phy80211p analogueModels "<root>...</root> at C:/Users/Pranitha/OneDrive/Desktop/ICDDR/Pandora/simulations/\\config.xml:34"
par RSUExampleScenario.node[8].nic.phy80211p decider "<root>...</root> at C:/Users/Pranitha/OneDrive/Desktop/ICDDR/Pandora/simulations/\\config.xml:34"
par RSUExampleScenario.node[8].nic.phy80211p minPowerLevel -110dBm
attr unit dBm
par RSUExampleScenario.node[8].nic.phy80211p timeRXToTX 0s
attr unit s
par RSUExampleScenario.node[8].nic.phy80211p timeRXToSleep 0s
attr unit s
par RSUExampleScenario.node[8].nic.phy80211p timeTXToRX 0s
attr unit s
par RSUExampleScenario.node[8].nic.phy80211p timeTXToSleep 0s
attr unit s
par RSUExampleScenario.node[8].nic.phy80211p timeSleepToRX 0s
attr unit s
par RSUExampleScenario.node[8].nic.phy80211p timeSleepToTX 0s
attr unit s
par RSUExampleScenario.node[8].nic.phy80211p initialRadioState 0
par RSUExampleScenario.node[8].nic.phy80211p radioMinAtt 1
par RSUExampleScenario.node[8].nic.phy80211p radioMaxAtt 0
par RSUExampleScenario.node[8].nic.phy80211p nbRadioChannels 1
par RSUExampleScenario.node[8].nic.phy80211p initialRadioChannel 0
par RSUExampleScenario.node[8].nic.phy80211p ccaThreshold -65dBm
attr unit dBm
par RSUExampleScenario.node[8].nic.phy80211p collectCollisionStatistics false
par RSUExampleScenario.node[8].nic.phy80211p allowTxDuringRx false
scalar RSUExampleScenario.node[8].nic.phy80211p busyTime 0.00016041142857143
par RSUExampleScenario.node[8].nic.mac1609_4 typename "\"org.car2x.veins.modules.mac.ieee80211p.Mac1609_4\""
par RSUExampleScenario.node[8].nic.mac1609_4 notAffectedByHostState false
par RSUExampleScenario.node[8].nic.mac1609_4 headerLength 0bit
attr unit bit
par RSUExampleScenario.node[8].nic.mac1609_4 address "\"auto\""
par RSUExampleScenario.node[8].nic.mac1609_4 useServiceChannel false
par RSUExampleScenario.node[8].nic.mac1609_4 serviceChannel 1
par RSUExampleScenario.node[8].nic.mac1609_4 bitrate 6000000bps
attr unit bps
par RSUExampleScenario.node[8].nic.mac1609_4 syncOffset 0.0003s
attr unit s
par RSUExampleScenario.node[8].nic.mac1609_4 txPower 20mW
attr unit mW
par RSUExampleScenario.node[8].nic.mac1609_4 queueSize 0
par RSUExampleScenario.node[8].nic.mac1609_4 dot11RTSThreshold 12000bit
attr unit bit
par RSUExampleScenario.node[8].nic.mac1609_4 dot11ShortRetryLimit 7
par RSUExampleScenario.node[8].nic.mac1609_4 dot11LongRetryLimit 4
par RSUExampleScenario.node[8].nic.mac1609_4 ackLength 112bit
attr unit bit
par RSUExampleScenario.node[8].nic.mac1609_4 useAcks false
par RSUExampleScenario.node[8].nic.mac1609_4 frameErrorRate 0
par RSUExampleScenario.node[8].nic.mac1609_4 ackErrorRate 0
scalar RSUExampleScenario.node[8].nic.mac1609_4 ReceivedUnicastPackets 0
scalar RSUExampleScenario.node[8].nic.mac1609_4 ReceivedBroadcasts 121
scalar RSUExampleScenario.node[8].nic.mac1609_4 SentPackets 7
scalar RSUExampleScenario.node[8].nic.mac1609_4 SentAcknowledgements 0
scalar RSUExampleScenario.node[8].nic.mac1609_4 RetriesExceeded 0
scalar RSUExampleScenario.node[8].nic.mac1609_4 SNIRLostPackets 0
scalar RSUExampleScenario.node[8].nic.mac1609_4 RXTXLostPackets 0
scalar RSUExampleScenario.node[8].nic.mac1609_4 TotalLostPackets 0
scalar RSUExampleScenario.node[8].nic.mac1609_4 DroppedPacketsInMac 0
scalar RSUExampleScenario.node[8].nic.mac1609_4 TooLittleTime 0
scalar RSUExampleScenario.node[8].nic.mac1609_4 TimesIntoBackoff 7
scalar RSUExampleScenario.node[8].nic.mac1609_4 SlotsBackoff 4
scalar RSUExampleScenario.node[8].nic.mac1609_4 NumInternalContention 0
scalar RSUExampleScenario.node[8].nic.mac1609_4 totalBusyTime 0.029703
scalar RSUExampleScenario.node[8].nic.mac1609_4 retriesExceeded:count 0
attr recordingmode count
attr source org_car2x_veins_modules_mac_sigRetriesExceeded
scalar RSUExampleScenario.node[8].nic.mac1609_4 sentAcks:count 0
attr recordingmode count
attr source org_car2x_veins_modules_mac_sigSentAck
scalar RSUExampleScenario.node[8].nic.mac1609_4 sentPackets:count 7
attr recordingmode count
attr source org_car2x_veins_modules_mac_sigSentPacket
scalar RSUExampleScenario.node[8].nic.mac1609_4 collisions:count 0
attr recordingmode count
attr source org_car2x_veins_modules_mac_sigCollision
scalar RSUExampleScenario.node[8].nic.mac1609_4 channelBusy:timeavg 0.00016973142857143
attr recordingmode timeavg
attr source org_car2x_veins_modules_mac_sigChannelBusy
par RSUExampleScenario.node[8].nic typename "\"org.car2x.veins.modules.nic.Nic80211p\""
par RSUExampleScenario.node[8].nic connectionManagerName "\"connectionManager\""
par RSUExampleScenario.node[8].veinsmobility typename "\"org.car2x.veins.modules.mobility.traci.TraCIMobility\""
par RSUExampleScenario.node[8].veinsmobility notAffectedByHostState true
par RSUExampleScenario.node[8].veinsmobility x 0
par RSUExampleScenario.node[8].veinsmobility y 0
par RSUExampleScenario.node[8].veinsmobility z 0
par RSUExampleScenario.node[8].veinsmobility xOrientation 1
par RSUExampleScenario.node[8].veinsmobility yOrientation 0
par RSUExampleScenario.node[8].veinsmobility zOrientation 0
par RSUExampleScenario.node[8].veinsmobility hostPositionOffset 0m
attr unit m
par RSUExampleScenario.node[8].veinsmobility setHostSpeed false
par RSUExampleScenario.node[8].veinsmobility accidentCount 0
par RSUExampleScenario.node[8].veinsmobility accidentStart 47.4606s
attr unit s
par RSUExampleScenario.node[8].veinsmobility accidentDuration "uniform(30s, 60s)"
attr unit s
par RSUExampleScenario.node[8].veinsmobility accidentInterval "uniform(30s, 60s)"
attr unit s
scalar RSUExampleScenario.node[8].veinsmobility startTime 25
scalar RSUExampleScenario.node[8].veinsmobility totalTime 175
scalar RSUExampleScenario.node[8].veinsmobility stopTime 200
scalar RSUExampleScenario.node[8].veinsmobility minSpeed 0
scalar RSUExampleScenario.node[8].veinsmobility maxSpeed 13.997763845769
scalar RSUExampleScenario.node[8].veinsmobility totalDistance 1819.0649206294
scalar RSUExampleScenario.node[8].veinsmobility totalCO2Emission 367.66591765433
par RSUExampleScenario.node[8] typename "\"org.car2x.veins.nodes.Car\""
par RSUExampleScenario.node[8] applType "\"PandoraVehicle\""
par RSUExampleScenario.node[8] nicType "\"Nic80211p\""
par RSUExampleScenario.node[8] veinsmobilityType "\"org.car2x.veins.modules.mobility.traci.TraCIMobility\""
par RSUExampleScenario.node[9].appl typename "\"PandoraVehicle\""
par RSUExampleScenario.node[9].appl headerLength 80bit
attr unit bit
par RSUExampleScenario.node[9].appl sendBeacons false
par RSUExampleScenario.node[9].appl beaconLengthBits 256bit
attr unit bit
par RSUExampleScenario.node[9].appl beaconUserPriority 7
par RSUExampleScenario.node[9].appl beaconInterval 1s
attr unit s
par RSUExampleScenario.node[9].appl dataLengthBits 1024bit
attr unit bit
par RSUExampleScenario.node[9].appl dataOnSch false
par RSUExampleScenario.node[9].appl dataUserPriority 7
par RSUExampleScenario.node[9].appl avoidBeaconSynchronization true
par RSUExampleScenario.node[9].appl sendWSA false
par RSUExampleScenario.node[9].appl wsaLengthBits 250bit
attr unit bit
par RSUExampleScenario.node[9].appl wsaInterval 1s
attr unit s
par RSUExampleScenario.node[9].nic.phy80211p typename "\"org.car2x.veins.modules.phy.PhyLayer80211p\""
par RSUExampleScenario.node[9].nic.phy80211p recordStats false
par RSUExampleScenario.node[9].nic.phy80211p usePropagationDelay true
par RSUExampleScenario.node[9].nic.phy80211p noiseFloor -98dBm
attr unit dBm
par RSUExampleScenario.node[9].nic.phy80211p useNoiseFloor true
par RSUExampleScenario.node[9].nic.phy80211p antenna "<Antenna type=\"SampledAntenna1D\" id=\"monopole\">...</Antenna> at C:/Users/Pranitha/OneDrive/Desktop/ICDDR/Pandora/simulations/\\antenna.xml:35"
[...]
par RSUExampleScenario.node[65].nic.mac1609_4 useServiceChannel false
par RSUExampleScenario.node[65].nic.mac1609_4 serviceChannel 1
par RSUExampleScenario.node[65].nic.mac1609_4 bitrate 6000000bps
attr unit bps
par RSUExampleScenario.node[65].nic.mac1609_4 syncOffset 0.0003s
attr unit s
par RSUExampleScenario.node[65].nic.mac1609_4 txPower 20mW
attr unit mW
par RSUExampleScenario.node[65].nic.mac1609_4 queueSize 0
par RSUExampleScenario.node[65].nic.mac1609_4 dot11RTSThreshold 12000bit
attr unit bit
par RSUExampleScenario.node[65].nic.mac1609_4 dot11ShortRetryLimit 7
par RSUExampleScenario.node[65].nic.mac1609_4 dot11LongRetryLimit 4
par RSUExampleScenario.node[65].nic.mac1609_4 ackLength 112bit
attr unit bit
par RSUExampleScenario.node[65].nic.mac1609_4 useAcks false
par RSUExampleScenario.node[65].nic.mac1609_4 frameErrorRate 0
par RSUExampleScenario.node[65].nic.mac1609_4 ackErrorRate 0
scalar RSUExampleScenario.node[65].nic.mac1609_4 ReceivedUnicastPackets 0
scalar RSUExampleScenario.node[65].nic.mac1609_4 ReceivedBroadcasts 0
scalar RSUExampleScenario.node[65].nic.mac1609_4 SentPackets 0
scalar RSUExampleScenario.node[65].nic.mac1609_4 SentAcknowledgements 0
scalar RSUExampleScenario.node[65].nic.mac1609_4 RetriesExceeded 0
scalar RSUExampleScenario.node[65].nic.mac1609_4 SNIRLostPackets 0
scalar RSUExampleScenario.node[65].nic.mac1609_4 RXTXLostPackets 0
scalar RSUExampleScenario.node[65].nic.mac1609_4 TotalLostPackets 0
scalar RSUExampleScenario.node[65].nic.mac1609_4 DroppedPacketsInMac 0
scalar RSUExampleScenario.node[65].nic.mac1609_4 TooLittleTime 0
scalar RSUExampleScenario.node[65].nic.mac1609_4 TimesIntoBackoff 0
scalar RSUExampleScenario.node[65].nic.mac1609_4 SlotsBackoff 0
scalar RSUExampleScenario.node[65].nic.mac1609_4 NumInternalContention 0
scalar RSUExampleScenario.node[65].nic.mac1609_4 totalBusyTime 0
scalar RSUExampleScenario.node[65].nic.mac1609_4 retriesExceeded:count 0
attr recordingmode count
attr source org_car2x_veins_modules_mac_sigRetriesExceeded
scalar RSUExampleScenario.node[65].nic.mac1609_4 sentAcks:count 0
attr recordingmode count
attr source org_car2x_veins_modules_mac_sigSentAck
scalar RSUExampleScenario.node[65].nic.mac1609_4 sentPackets:count 0
attr recordingmode count
attr source org_car2x_veins_modules_mac_sigSentPacket
scalar RSUExampleScenario.node[65].nic.mac1609_4 collisions:count 0
attr recordingmode count
attr source org_car2x_veins_modules_mac_sigCollision
scalar RSUExampleScenario.node[65].nic.mac1609_4 channelBusy:timeavg 0
attr recordingmode timeavg
attr source org_car2x_veins_modules_mac_sigChannelBusy
par RSUExampleScenario.node[65].nic typename "\"org.car2x.veins.modules.nic.Nic80211p\""
par RSUExampleScenario.node[65].nic connectionManagerName "\"connectionManager\""
par RSUExampleScenario.node[65].veinsmobility typename "\"org.car2x.veins.modules.mobility.traci.TraCIMobility\""
par RSUExampleScenario.node[65].veinsmobility notAffectedByHostState true
par RSUExampleScenario.node[65].veinsmobility x 0
par RSUExampleScenario.node[65].veinsmobility y 0
par RSUExampleScenario.node[65].veinsmobility z 0
par RSUExampleScenario.node[65].veinsmobility xOrientation 1
par RSUExampleScenario.node[65].veinsmobility yOrientation 0
par RSUExampleScenario.node[65].veinsmobility zOrientation 0
par RSUExampleScenario.node[65].veinsmobility hostPositionOffset 0m
attr unit m
par RSUExampleScenario.node[65].veinsmobility setHostSpeed false
par RSUExampleScenario.node[65].veinsmobility accidentCount 0
par RSUExampleScenario.node[65].veinsmobility accidentStart 52.3729s
attr unit s
par RSUExampleScenario.node[65].veinsmobility accidentDuration "uniform(30s, 60s)"
attr unit s
par RSUExampleScenario.node[65].veinsmobility accidentInterval "uniform(30s, 60s)"
attr unit s
scalar RSUExampleScenario.node[65].veinsmobility startTime 196
scalar RSUExampleScenario.node[65].veinsmobility totalTime 4
scalar RSUExampleScenario.node[65].veinsmobility stopTime 200
scalar RSUExampleScenario.node[65].veinsmobility minSpeed 3.9035555463673
scalar RSUExampleScenario.node[65].veinsmobility maxSpeed 9.6555590937442
scalar RSUExampleScenario.node[65].veinsmobility totalDistance 23.625292592395
scalar RSUExampleScenario.node[65].veinsmobility totalCO2Emission 15.319209201116
par RSUExampleScenario.node[65] typename "\"org.car2x.veins.nodes.Car\""
par RSUExampleScenario.node[65] applType "\"PandoraVehicle\""
par RSUExampleScenario.node[65] nicType "\"Nic80211p\""
par RSUExampleScenario.node[65] veinsmobilityType "\"org.car2x.veins.modules.mobility.traci.TraCIMobility\""
par RSUExampleScenario.node[66].appl typename "\"PandoraVehicle\""
par RSUExampleScenario.node[66].appl headerLength 80bit
attr unit bit
par RSUExampleScenario.node[66].appl sendBeacons false
par RSUExampleScenario.node[66].appl beaconLengthBits 256bit
attr unit bit
par RSUExampleScenario.node[66].appl beaconUserPriority 7
par RSUExampleScenario.node[66].appl beaconInterval 1s
attr unit s
par RSUExampleScenario.node[66].appl dataLengthBits 1024bit
attr unit bit
par RSUExampleScenario.node[66].appl dataOnSch false
par RSUExampleScenario.node[66].appl dataUserPriority 7
par RSUExampleScenario.node[66].appl avoidBeaconSynchronization true
par RSUExampleScenario.node[66].appl sendWSA false
par RSUExampleScenario.node[66].appl wsaLengthBits 250bit
attr unit bit
par RSUExampleScenario.node[66].appl wsaInterval 1s
attr unit s
par RSUExampleScenario.node[66].nic.phy80211p typename "\"org.car2x.veins.modules.phy.PhyLayer80211p\""
par RSUExampleScenario.node[66].nic.phy80211p recordStats false
par RSUExampleScenario.node[66].nic.phy80211p usePropagationDelay true
par RSUExampleScenario.node[66].nic.phy80211p noiseFloor -98dBm
attr unit dBm
par RSUExampleScenario.node[66].nic.phy80211p useNoiseFloor true
par RSUExampleScenario.node[66].nic.phy80211p antenna "<Antenna type=\"SampledAntenna1D\" id=\"monopole\">...</Antenna> at C:/Users/Pranitha/OneDrive/Desktop/ICDDR/Pandora/simulations/\\antenna.xml:35"
par RSUExampleScenario.node[66].nic.phy80211p antennaOffsetX 0m
attr unit m
par RSUExampleScenario.node[66].nic.phy80211p antennaOffsetY 0m
attr unit m
par RSUExampleScenario.node[66].nic.phy80211p antennaOffsetZ 1.895m
attr unit m
par RSUExampleScenario.node[66].nic.phy80211p antennaOffsetYaw 0rad
attr unit rad
par RSUExampleScenario.node[66].nic.phy80211p analogueModels "<root>...</root> at C:/Users/Pranitha/OneDrive/Desktop/ICDDR/Pandora/simulations/\\config.xml:34"
par RSUExampleScenario.node[66].nic.phy80211p decider "<root>...</root> at C:/Users/Pranitha/OneDrive/Desktop/ICDDR/Pandora/simulations/\\config.xml:34"
par RSUExampleScenario.node[66].nic.phy80211p minPowerLevel -110dBm
attr unit dBm
par RSUExampleScenario.node[66].nic.phy80211p timeRXToTX 0s
attr unit s
par RSUExampleScenario.node[66].nic.phy80211p timeRXToSleep 0s
attr unit s
par RSUExampleScenario.node[66].nic.phy80211p timeTXToRX 0s
attr unit s
par RSUExampleScenario.node[66].nic.phy80211p timeTXToSleep 0s
attr unit s
par RSUExampleScenario.node[66].nic.phy80211p timeSleepToRX 0s
attr unit s
par RSUExampleScenario.node[66].nic.phy80211p timeSleepToTX 0s
attr unit s
par RSUExampleScenario.node[66].nic.phy80211p initialRadioState 0
par RSUExampleScenario.node[66].nic.phy80211p radioMinAtt 1
par RSUExampleScenario.node[66].nic.phy80211p radioMaxAtt 0
par RSUExampleScenario.node[66].nic.phy80211p nbRadioChannels 1
par RSUExampleScenario.node[66].nic.phy80211p initialRadioChannel 0
par RSUExampleScenario.node[66].nic.phy80211p ccaThreshold -65dBm
attr unit dBm
par RSUExampleScenario.node[66].nic.phy80211p collectCollisionStatistics false
par RSUExampleScenario.node[66].nic.phy80211p allowTxDuringRx false
scalar RSUExampleScenario.node[66].nic.phy80211p busyTime 0
par RSUExampleScenario.node[66].nic.mac1609_4 typename "\"org.car2x.veins.modules.mac.ieee80211p.Mac1609_4\""
par RSUExampleScenario.node[66].nic.mac1609_4 notAffectedByHostState false
par RSUExampleScenario.node[66].nic.mac1609_4 headerLength 0bit
attr unit bit
par RSUExampleScenario.node[66].nic.mac1609_4 address "\"auto\""
par RSUExampleScenario.node[66].nic.mac1609_4 useServiceChannel false
par RSUExampleScenario.node[66].nic.mac1609_4 serviceChannel 1
par RSUExampleScenario.node[66].nic.mac1609_4 bitrate 6000000bps
attr unit bps
par RSUExampleScenario.node[66].nic.mac1609_4 syncOffset 0.0003s
attr unit s
par RSUExampleScenario.node[66].nic.mac1609_4 txPower 20mW
attr unit mW
par RSUExampleScenario.node[66].nic.mac1609_4 queueSize 0
par RSUExampleScenario.node[66].nic.mac1609_4 dot11RTSThreshold 12000bit
attr unit bit
par RSUExampleScenario.node[66].nic.mac1609_4 dot11ShortRetryLimit 7
par RSUExampleScenario.node[66].nic.mac1609_4 dot11LongRetryLimit 4
par RSUExampleScenario.node[66].nic.mac1609_4 ackLength 112bit
attr unit bit
par RSUExampleScenario.node[66].nic.mac1609_4 useAcks false
par RSUExampleScenario.node[66].nic.mac1609_4 frameErrorRate 0
par RSUExampleScenario.node[66].nic.mac1609_4 ackErrorRate 0
scalar RSUExampleScenario.node[66].nic.mac1609_4 ReceivedUnicastPackets 0
scalar RSUExampleScenario.node[66].nic.mac1609_4 ReceivedBroadcasts 0
scalar RSUExampleScenario.node[66].nic.mac1609_4 SentPackets 0
scalar RSUExampleScenario.node[66].nic.mac1609_4 SentAcknowledgements 0
scalar RSUExampleScenario.node[66].nic.mac1609_4 RetriesExceeded 0
scalar RSUExampleScenario.node[66].nic.mac1609_4 SNIRLostPackets 0
scalar RSUExampleScenario.node[66].nic.mac1609_4 RXTXLostPackets 0
scalar RSUExampleScenario.node[66].nic.mac1609_4 TotalLostPackets 0
scalar RSUExampleScenario.node[66].nic.mac1609_4 DroppedPacketsInMac 0
scalar RSUExampleScenario.node[66].nic.mac1609_4 TooLittleTime 0
scalar RSUExampleScenario.node[66].nic.mac1609_4 TimesIntoBackoff 0
scalar RSUExampleScenario.node[66].nic.mac1609_4 SlotsBackoff 0
scalar RSUExampleScenario.node[66].nic.mac1609_4 NumInternalContention 0
scalar RSUExampleScenario.node[66].nic.mac1609_4 totalBusyTime 0
scalar RSUExampleScenario.node[66].nic.mac1609_4 retriesExceeded:count 0
attr recordingmode count
attr source org_car2x_veins_modules_mac_sigRetriesExceeded
scalar RSUExampleScenario.node[66].nic.mac1609_4 sentAcks:count 0
attr recordingmode count
attr source org_car2x_veins_modules_mac_sigSentAck
scalar RSUExampleScenario.node[66].nic.mac1609_4 sentPackets:count 0
attr recordingmode count
attr source org_car2x_veins_modules_mac_sigSentPacket
scalar RSUExampleScenario.node[66].nic.mac1609_4 collisions:count 0
attr recordingmode count
attr source org_car2x_veins_modules_mac_sigCollision
scalar RSUExampleScenario.node[66].nic.mac1609_4 channelBusy:timeavg 0
attr recordingmode timeavg
attr source org_car2x_veins_modules_mac_sigChannelBusy
par RSUExampleScenario.node[66].nic typename "\"org.car2x.veins.modules.nic.Nic80211p\""
par RSUExampleScenario.node[66].nic connectionManagerName "\"connectionManager\""
par RSUExampleScenario.node[66].veinsmobility typename "\"org.car2x.veins.modules.mobility.traci.TraCIMobility\""
par RSUExampleScenario.node[66].veinsmobility notAffectedByHostState true
par RSUExampleScenario.node[66].veinsmobility x 0
par RSUExampleScenario.node[66].veinsmobility y 0
par RSUExampleScenario.node[66].veinsmobility z 0
par RSUExampleScenario.node[66].veinsmobility xOrientation 1
par RSUExampleScenario.node[66].veinsmobility yOrientation 0
par RSUExampleScenario.node[66].veinsmobility zOrientation 0
par RSUExampleScenario.node[66].veinsmobility hostPositionOffset 0m
attr unit m
par RSUExampleScenario.node[66].veinsmobility setHostSpeed false
par RSUExampleScenario.node[66].veinsmobility accidentCount 0
par RSUExampleScenario.node[66].veinsmobility accidentStart 55.2807s
attr unit s
par RSUExampleScenario.node[66].veinsmobility accidentDuration "uniform(30s, 60s)"
attr unit s
par RSUExampleScenario.node[66].veinsmobility accidentInterval "uniform(30s, 60s)"
attr unit s
scalar RSUExampleScenario.node[66].veinsmobility startTime 199
scalar RSUExampleScenario.node[66].veinsmobility totalTime 1
scalar RSUExampleScenario.node[66].veinsmobility stopTime 200
scalar RSUExampleScenario.node[66].veinsmobility minSpeed 3.9654431967067
scalar RSUExampleScenario.node[66].veinsmobility maxSpeed 3.9654431967067
scalar RSUExampleScenario.node[66].veinsmobility totalDistance 3.1020147982786
scalar RSUExampleScenario.node[66].veinsmobility totalCO2Emission 0
par RSUExampleScenario.node[66] typename "\"org.car2x.veins.nodes.Car\""
par RSUExampleScenario.node[66] applType "\"PandoraVehicle\""
par RSUExampleScenario.node[66] nicType "\"Nic80211p\""
par RSUExampleScenario.node[66] veinsmobilityType "\"org.car2x.veins.modules.mobility.traci.TraCIMobility\""
par RSUExampleScenario.rsu[0].appl typename "\"PandoraRSU\""
par RSUExampleScenario.rsu[0].appl headerLength 80bit
attr unit bit
par RSUExampleScenario.rsu[0].appl sendBeacons false
par RSUExampleScenario.rsu[0].appl beaconLengthBits 256bit
attr unit bit
par RSUExampleScenario.rsu[0].appl beaconUserPriority 7
par RSUExampleScenario.rsu[0].appl beaconInterval 1s
attr unit s
par RSUExampleScenario.rsu[0].appl dataLengthBits 1024bit
attr unit bit
par RSUExampleScenario.rsu[0].appl dataOnSch false
par RSUExampleScenario.rsu[0].appl dataUserPriority 5
par RSUExampleScenario.rsu[0].appl avoidBeaconSynchronization true
par RSUExampleScenario.rsu[0].appl sendWSA false
par RSUExampleScenario.rsu[0].appl wsaLengthBits 250bit
attr unit bit
par RSUExampleScenario.rsu[0].appl wsaInterval 1s
attr unit s
scalar RSUExampleScenario.rsu[0].appl generatedWSMs 0
scalar RSUExampleScenario.rsu[0].appl receivedWSMs 0
scalar RSUExampleScenario.rsu[0].appl generatedBSMs 0
scalar RSUExampleScenario.rsu[0].appl receivedBSMs 0
scalar RSUExampleScenario.rsu[0].appl generatedWSAs 0
scalar RSUExampleScenario.rsu[0].appl receivedWSAs 0
par RSUExampleScenario.rsu[0].nic.phy80211p typename "\"org.car2x.veins.modules.phy.PhyLayer80211p\""
par RSUExampleScenario.rsu[0].nic.phy80211p recordStats false
par RSUExampleScenario.rsu[0].nic.phy80211p usePropagationDelay true
par RSUExampleScenario.rsu[0].nic.phy80211p noiseFloor -98dBm
attr unit dBm
par RSUExampleScenario.rsu[0].nic.phy80211p useNoiseFloor true
par RSUExampleScenario.rsu[0].nic.phy80211p antenna "<Antenna type=\"SampledAntenna1D\" id=\"monopole\">...</Antenna> at C:/Users/Pranitha/OneDrive/Desktop/ICDDR/Pandora/simulations/\\antenna.xml:35"
par RSUExampleScenario.rsu[0].nic.phy80211p antennaOffsetX 0m
attr unit m
par RSUExampleScenario.rsu[0].nic.phy80211p antennaOffsetY 0m
attr unit m
par RSUExampleScenario.rsu[0].nic.phy80211p antennaOffsetZ 0m
attr unit m
par RSUExampleScenario.rsu[0].nic.phy80211p antennaOffsetYaw 0rad
attr unit rad
par RSUExampleScenario.rsu[0].nic.phy80211p analogueModels "<root>...</root> at C:/Users/Pranitha/OneDrive/Desktop/ICDDR/Pandora/simulations/\\config.xml:34"
par RSUExampleScenario.rsu[0].nic.phy80211p decider "<root>...</root> at C:/Users/Pranitha/OneDrive/Desktop/ICDDR/Pandora/simulations/\\config.xml:34"
par RSUExampleScenario.rsu[0].nic.phy80211p minPowerLevel -110dBm
attr unit dBm
par RSUExampleScenario.rsu[0].nic.phy80211p timeRXToTX 0s
attr unit s
par RSUExampleScenario.rsu[0].nic.phy80211p timeRXToSleep 0s
attr unit s
par RSUExampleScenario.rsu[0].nic.phy80211p timeTXToRX 0s
attr unit s
par RSUExampleScenario.rsu[0].nic.phy80211p timeTXToSleep 0s
attr unit s
par RSUExampleScenario.rsu[0].nic.phy80211p timeSleepToRX 0s
attr unit s
par RSUExampleScenario.rsu[0].nic.phy80211p timeSleepToTX 0s
attr unit s
par RSUExampleScenario.rsu[0].nic.phy80211p initialRadioState 0
par RSUExampleScenario.rsu[0].nic.phy80211p radioMinAtt 1
par RSUExampleScenario.rsu[0].nic.phy80211p radioMaxAtt 0
par RSUExampleScenario.rsu[0].nic.phy80211p nbRadioChannels 1
par RSUExampleScenario.rsu[0].nic.phy80211p initialRadioChannel 0
par RSUExampleScenario.rsu[0].nic.phy80211p ccaThreshold -65dBm
attr unit dBm
par RSUExampleScenario.rsu[0].nic.phy80211p collectCollisionStatistics false
par RSUExampleScenario.rsu[0].nic.phy80211p allowTxDuringRx false
scalar RSUExampleScenario.rsu[0].nic.phy80211p busyTime 0.00014848
par RSUExampleScenario.rsu[0].nic.mac1609_4 typename "\"org.car2x.veins.modules.mac.ieee80211p.Mac1609_4\""
par RSUExampleScenario.rsu[0].nic.mac1609_4 notAffectedByHostState false
par RSUExampleScenario.rsu[0].nic.mac1609_4 headerLength 0bit
attr unit bit
par RSUExampleScenario.rsu[0].nic.mac1609_4 address "\"auto\""
par RSUExampleScenario.rsu[0].nic.mac1609_4 useServiceChannel false
par RSUExampleScenario.rsu[0].nic.mac1609_4 serviceChannel 1
par RSUExampleScenario.rsu[0].nic.mac1609_4 bitrate 6000000bps
attr unit bps
par RSUExampleScenario.rsu[0].nic.mac1609_4 syncOffset 0.0003s
attr unit s
par RSUExampleScenario.rsu[0].nic.mac1609_4 txPower 20mW
attr unit mW
par RSUExampleScenario.rsu[0].nic.mac1609_4 queueSize 0
par RSUExampleScenario.rsu[0].nic.mac1609_4 dot11RTSThreshold 12000bit
attr unit bit
par RSUExampleScenario.rsu[0].nic.mac1609_4 dot11ShortRetryLimit 7
par RSUExampleScenario.rsu[0].nic.mac1609_4 dot11LongRetryLimit 4
par RSUExampleScenario.rsu[0].nic.mac1609_4 ackLength 112bit
attr unit bit
par RSUExampleScenario.rsu[0].nic.mac1609_4 useAcks false
par RSUExampleScenario.rsu[0].nic.mac1609_4 frameErrorRate 0
par RSUExampleScenario.rsu[0].nic.mac1609_4 ackErrorRate 0
scalar RSUExampleScenario.rsu[0].nic.mac1609_4 ReceivedUnicastPackets 0
scalar RSUExampleScenario.rsu[0].nic.mac1609_4 ReceivedBroadcasts 0
scalar RSUExampleScenario.rsu[0].nic.mac1609_4 SentPackets 0
scalar RSUExampleScenario.rsu[0].nic.mac1609_4 SentAcknowledgements 0
scalar RSUExampleScenario.rsu[0].nic.mac1609_4 RetriesExceeded 0
scalar RSUExampleScenario.rsu[0].nic.mac1609_4 SNIRLostPackets 128
scalar RSUExampleScenario.rsu[0].nic.mac1609_4 RXTXLostPackets 0
scalar RSUExampleScenario.rsu[0].nic.mac1609_4 TotalLostPackets 128
scalar RSUExampleScenario.rsu[0].nic.mac1609_4 DroppedPacketsInMac 0
scalar RSUExampleScenario.rsu[0].nic.mac1609_4 TooLittleTime 0
scalar RSUExampleScenario.rsu[0].nic.mac1609_4 TimesIntoBackoff 0
scalar RSUExampleScenario.rsu[0].nic.mac1609_4 SlotsBackoff 0
scalar RSUExampleScenario.rsu[0].nic.mac1609_4 NumInternalContention 0
scalar RSUExampleScenario.rsu[0].nic.mac1609_4 totalBusyTime 0.029696
scalar RSUExampleScenario.rsu[0].nic.mac1609_4 retriesExceeded:count 0
attr recordingmode count
attr source org_car2x_veins_modules_mac_sigRetriesExceeded
scalar RSUExampleScenario.rsu[0].nic.mac1609_4 sentAcks:count 0
attr recordingmode count
attr source org_car2x_veins_modules_mac_sigSentAck
scalar RSUExampleScenario.rsu[0].nic.mac1609_4 sentPackets:count 0
attr recordingmode count
attr source org_car2x_veins_modules_mac_sigSentPacket
scalar RSUExampleScenario.rsu[0].nic.mac1609_4 collisions:count 0
attr recordingmode count
attr source org_car2x_veins_modules_mac_sigCollision
scalar RSUExampleScenario.rsu[0].nic.mac1609_4 channelBusy:timeavg 0.00014848
attr recordingmode timeavg
attr source org_car2x_veins_modules_mac_sigChannelBusy
par RSUExampleScenario.rsu[0].nic typename "\"org.car2x.veins.modules.nic.Nic80211p\""
par RSUExampleScenario.rsu[0].nic connectionManagerName "\"connectionManager\""
par RSUExampleScenario.rsu[0].mobility typename "\"org.car2x.veins.base.modules.BaseMobility\""
par RSUExampleScenario.rsu[0].mobility notAffectedByHostState true
par RSUExampleScenario.rsu[0].mobility x 2000
par RSUExampleScenario.rsu[0].mobility y 2000
par RSUExampleScenario.rsu[0].mobility z 3
par RSUExampleScenario.rsu[0].mobility xOrientation 1
par RSUExampleScenario.rsu[0].mobility yOrientation 0
par RSUExampleScenario.rsu[0].mobility zOrientation 0
par RSUExampleScenario.rsu[0] typename "\"org.car2x.veins.nodes.RSU\""
par RSUExampleScenario.rsu[0] applType "\"PandoraRSU\""
par RSUExampleScenario.rsu[0] nicType "\"Nic80211p\""
par RSUExampleScenario typename "\"RSUExampleScenario\""
par RSUExampleScenario playgroundSizeX 2500m
attr unit m
par RSUExampleScenario playgroundSizeY 2500m
attr unit m
par RSUExampleScenario playgroundSizeZ 50m
attr unit m

