version 3
run Default-0-20260207-14:59:32-12060
attr configname Default
attr datetime 20260207-14:59:32
attr datetimef 20260207-145932
attr experiment Default
attr inifile omnetpp.ini
attr iterationvars ""
attr iterationvarsd ""
attr iterationvarsf ""
attr measurement ""
attr network RSUExampleScenario
attr processid 12060
attr repetition 0
attr replication #0
attr resultdir results
attr runnumber 0
attr seedset 0
config image-path ../../../../../Downloads/veins-5.3.1/veins-veins-5.3.1/images
config cmdenv-express-mode true
config cmdenv-autoflush true
config cmdenv-status-frequency 1s
config **.cmdenv-log-level info
config image-path ../../images
config network RSUExampleScenario
config debug-on-errors true
config print-undisposed true
config sim-time-limit 200s
config **.scalar-recording true
config **.vector-recording true
config *.playgroundSizeX 2500m
config *.playgroundSizeY 2500m
config *.playgroundSizeZ 50m
config *.annotations.draw true
config *.obstacles.obstacles "xmldoc(\"config.xml\", \"//AnalogueModel[@type='SimpleObstacleShadowing']/obstacles\")"
config *.manager.updateInterval 1s
config *.manager.host "\"localhost\""
config *.manager.port 9999
config *.manager.autoShutdown true
config *.manager.launchConfig "xmldoc(\"erlangen.launchd.xml\")"
config *.manager.trafficLightModuleType "\"org.car2x.veins.nodes.TrafficLight\""
config *.tls[*].mobility.x 0
config *.tls[*].mobility.y 0
config *.tls[*].mobility.z 3
config *.tls[*].applType "\"org.car2x.veins.modules.application.traci.TraCIDemoTrafficLightApp\""
config *.tls[*].logicType "\"org.car2x.veins.modules.world.traci.trafficLight.logics.TraCITrafficLightSimpleLogic\""
config *.rsu[0].mobility.x 2000
config *.rsu[0].mobility.y 2000
config *.rsu[0].mobility.z 3
config *.rsu[*].applType "\"PandoraRSU\""
config *.rsu[*].appl.headerLength "80 bit"
config *.rsu[*].appl.sendBeacons false
config *.rsu[*].appl.dataOnSch false
config *.rsu[*].appl.beaconInterval 1s
config *.rsu[*].appl.beaconUserPriority 7
config *.rsu[*].appl.dataUserPriority 5
config *.rsu[*].nic.phy80211p.antennaOffsetZ "0 m"
config *.connectionManager.sendDirect true
config *.connectionManager.maxInterfDist 2600m
config *.connectionManager.drawMaxIntfDist false
config *.**.nic.mac1609_4.useServiceChannel false
config *.**.nic.mac1609_4.txPower 20mW
config *.**.nic.mac1609_4.bitrate 6Mbps
config *.**.nic.phy80211p.minPowerLevel -110dBm
config *.**.nic.phy80211p.useNoiseFloor true
config *.**.nic.phy80211p.noiseFloor -98dBm
config *.**.nic.phy80211p.decider "xmldoc(\"config.xml\")"
config *.**.nic.phy80211p.analogueModels "xmldoc(\"config.xml\")"
config *.**.nic.phy80211p.usePropagationDelay true
config *.**.nic.phy80211p.antenna "xmldoc(\"antenna.xml\", \"/root/Antenna[@id='monopole']\")"
config *.node[*].nic.phy80211p.antennaOffsetY "0 m"
config *.node[*].nic.phy80211p.antennaOffsetZ "1.895 m"
config *.node[*].applType "\"PandoraVehicle\""
config *.node[*].appl.headerLength "80 bit"
config *.node[*].appl.sendBeacons false
config *.node[*].appl.dataOnSch false
config *.node[*].appl.beaconInterval 1s
config *.node[*].veinsmobility.x 0
config *.node[*].veinsmobility.y 0
config *.node[*].veinsmobility.z 0
config *.node[*].veinsmobility.setHostSpeed false
config *.node[*0].veinsmobility.accidentCount 1
config *.node[*0].veinsmobility.accidentStart 73s
config *.node[*0].veinsmobility.accidentDuration 50s

vector 0 RSUExampleScenario.rsu[0].nic.phy80211p RadioState ETV
vector 1 RSUExampleScenario.rsu[0].nic.phy80211p RadioChannel ETV
vector 2 RSUExampleScenario.node[0].nic.phy80211p RadioState ETV
vector 3 RSUExampleScenario.node[0].nic.phy80211p RadioChannel ETV
vector 4 RSUExampleScenario.manager posx ETV
vector 5 RSUExampleScenario.manager posy ETV
vector 6 RSUExampleScenario.manager speed ETV
vector 7 RSUExampleScenario.manager acceleration ETV
vector 8 RSUExampleScenario.manager co2emission ETV
vector 9 RSUExampleScenario.node[1].nic.phy80211p RadioState ETV
vector 10 RSUExampleScenario.node[1].nic.phy80211p RadioChannel ETV
vector 11 RSUExampleScenario.manager posx ETV
vector 12 RSUExampleScenario.manager posy ETV
vector 13 RSUExampleScenario.manager speed ETV
vector 14 RSUExampleScenario.manager acceleration ETV
vector 15 RSUExampleScenario.manager co2emission ETV
vector 16 RSUExampleScenario.node[2].nic.phy80211p RadioState ETV
vector 17 RSUExampleScenario.node[2].nic.phy80211p RadioChannel ETV
vector 18 RSUExampleScenario.manager posx ETV
vector 19 RSUExampleScenario.manager posy ETV
vector 20 RSUExampleScenario.manager speed ETV
vector 21 RSUExampleScenario.manager acceleration ETV
vector 22 RSUExampleScenario.manager co2emission ETV
vector 23 RSUExampleScenario.node[3].nic.phy80211p RadioState ETV
vector 24 RSUExampleScenario.node[3].nic.phy80211p RadioChannel ETV
vector 25 RSUExampleScenario.manager posx ETV
vector 26 RSUExampleScenario.manager posy ETV
vector 27 RSUExampleScenario.manager speed ETV
vector 28 RSUExampleScenario.manager acceleration ETV
vector 29 RSUExampleScenario.manager co2emission ETV
vector 30 RSUExampleScenario.node[4].nic.phy80211p RadioState ETV
vector 31 RSUExampleScenario.node[4].nic.phy80211p RadioChannel ETV
vector 32 RSUExampleScenario.manager posx ETV
vector 33 RSUExampleScenario.manager posy ETV
vector 34 RSUExampleScenario.manager speed ETV
vector 35 RSUExampleScenario.manager acceleration ETV
vector 36 RSUExampleScenario.manager co2emission ETV
vector 37 RSUExampleScenario.node[5].nic.phy80211p RadioState ETV
vector 38 RSUExampleScenario.node[5].nic.phy80211p RadioChannel ETV
vector 39 RSUExampleScenario.manager posx ETV
vector 40 RSUExampleScenario.manager posy ETV
vector 41 RSUExampleScenario.manager speed ETV
vector 42 RSUExampleScenario.manager acceleration ETV
vector 43 RSUExampleScenario.manager co2emission ETV
vector 44 RSUExampleScenario.node[6].nic.phy80211p RadioState ETV
vector 45 RSUExampleScenario.node[6].nic.phy80211p RadioChannel ETV
vector 46 RSUExampleScenario.manager posx ETV
vector 47 RSUExampleScenario.manager posy ETV
vector 48 RSUExampleScenario.manager speed ETV
vector 49 RSUExampleScenario.manager acceleration ETV
vector 50 RSUExampleScenario.manager co2emission ETV
vector 51 RSUExampleScenario.node[7].nic.phy80211p RadioState ETV
vector 52 RSUExampleScenario.node[7].nic.phy80211p RadioChannel ETV
vector 53 RSUExampleScenario.manager posx ETV
vector 54 RSUExampleScenario.manager posy ETV
vector 55 RSUExampleScenario.manager speed ETV
vector 56 RSUExampleScenario.manager acceleration ETV
vector 57 RSUExampleScenario.manager co2emission ETV
vector 58 RSUExampleScenario.node[8].nic.phy80211p RadioState ETV
vector 59 RSUExampleScenario.node[8].nic.phy80211p RadioChannel ETV
vector 60 RSUExampleScenario.manager posx ETV
vector 61 RSUExampleScenario.manager posy ETV
vector 62 RSUExampleScenario.manager speed ETV
vector 63 RSUExampleScenario.manager acceleration ETV
vector 64 RSUExampleScenario.manager co2emission ETV
vector 65 RSUExampleScenario.node[9].nic.phy80211p RadioState ETV
vector 66 RSUExampleScenario.node[9].nic.phy80211p RadioChannel ETV
vector 67 RSUExampleScenario.manager posx ETV
vector 68 RSUExampleScenario.manager posy ETV
vector 69 RSUExampleScenario.manager speed ETV
vector 70 RSUExampleScenario.manager acceleration ETV
vector 71 RSUExampleScenario.manager co2emission ETV
vector 72 RSUExampleScenario.node[10].nic.phy80211p RadioState ETV
vector 73 RSUExampleScenario.node[10].nic.phy80211p RadioChannel ETV
vector 74 RSUExampleScenario.manager posx ETV
vector 75 RSUExampleScenario.manager posy ETV
vector 76 RSUExampleScenario.manager speed ETV
vector 77 RSUExampleScenario.manager acceleration ETV
vector 78 RSUExampleScenario.manager co2emission ETV
vector 79 RSUExampleScenario.node[11].nic.phy80211p RadioState ETV
vector 80 RSUExampleScenario.node[11].nic.phy80211p RadioChannel ETV
vector 81 RSUExampleScenario.manager posx ETV
vector 82 RSUExampleScenario.manager posy ETV
vector 83 RSUExampleScenario.manager speed ETV
vector 84 RSUExampleScenario.manager acceleration ETV
vector 85 RSUExampleScenario.manager co2emission ETV
vector 86 RSUExampleScenario.node[12].nic.phy80211p RadioState ETV
vector 87 RSUExampleScenario.node[12].nic.phy80211p RadioChannel ETV
vector 88 RSUExampleScenario.manager posx ETV
vector 89 RSUExampleScenario.manager posy ETV
vector 90 RSUExampleScenario.manager speed ETV
vector 91 RSUExampleScenario.manager acceleration ETV
vector 92 RSUExampleScenario.manager co2emission ETV
vector 93 RSUExampleScenario.node[13].nic.phy80211p RadioState ETV
vector 94 RSUExampleScenario.node[13].nic.phy80211p RadioChannel ETV
vector 95 RSUExampleScenario.manager posx ETV
vector 96 RSUExampleScenario.manager posy ETV
vector 97 RSUExampleScenario.manager speed ETV
vector 98 RSUExampleScenario.manager acceleration ETV
vector 99 RSUExampleScenario.manager co2emission ETV
vector 100 RSUExampleScenario.node[14].nic.phy80211p RadioState ETV
vector 101 RSUExampleScenario.node[14].nic.phy80211p RadioChannel ETV
vector 102 RSUExampleScenario.manager posx ETV
vector 103 RSUExampleScenario.manager posy ETV
vector 104 RSUExampleScenario.manager speed ETV
vector 105 RSUExampleScenario.manager acceleration ETV
vector 106 RSUExampleScenario.manager co2emission ETV
vector 107 RSUExampleScenario.node[15].nic.phy80211p RadioState ETV
vector 108 RSUExampleScenario.node[15].nic.phy80211p RadioChannel ETV
vector 109 RSUExampleScenario.manager posx ETV
vector 110 RSUExampleScenario.manager posy ETV
vector 111 RSUExampleScenario.manager speed ETV
vector 112 RSUExampleScenario.manager acceleration ETV
vector 113 RSUExampleScenario.manager co2emission ETV
vector 114 RSUExampleScenario.node[16].nic.phy80211p RadioState ETV
vector 115 RSUExampleScenario.node[16].nic.phy80211p RadioChannel ETV
vector 116 RSUExampleScenario.manager posx ETV
vector 117 RSUExampleScenario.manager posy ETV
vector 118 RSUExampleScenario.manager speed ETV
vector 119 RSUExampleScenario.manager acceleration ETV
vector 120 RSUExampleScenario.manager co2emission ETV
vector 121 RSUExampleScenario.node[17].nic.phy80211p RadioState ETV
vector 122 RSUExampleScenario.node[17].nic.phy80211p RadioChannel ETV
vector 123 RSUExampleScenario.manager posx ETV
vector 124 RSUExampleScenario.manager posy ETV
vector 125 RSUExampleScenario.manager speed ETV
vector 126 RSUExampleScenario.manager acceleration ETV
vector 127 RSUExampleScenario.manager co2emission ETV
vector 128 RSUExampleScenario.node[18].nic.phy80211p RadioState ETV
vector 129 RSUExampleScenario.node[18].nic.phy80211p RadioChannel ETV
vector 130 RSUExampleScenario.manager posx ETV
vector 131 RSUExampleScenario.manager posy ETV
vector 132 RSUExampleScenario.manager speed ETV
vector 133 RSUExampleScenario.manager acceleration ETV
vector 134 RSUExampleScenario.manager co2emission ETV
vector 135 RSUExampleScenario.node[19].nic.phy80211p RadioState ETV
vector 136 RSUExampleScenario.node[19].nic.phy80211p RadioChannel ETV
vector 137 RSUExampleScenario.manager posx ETV
vector 138 RSUExampleScenario.manager posy ETV
vector 139 RSUExampleScenario.manager speed ETV
vector 140 RSUExampleScenario.manager acceleration ETV
vector 141 RSUExampleScenario.manager co2emission ETV
vector 142 RSUExampleScenario.node[20].nic.phy80211p RadioState ETV
vector 143 RSUExampleScenario.node[20].nic.phy80211p RadioChannel ETV
vector 144 RSUExampleScenario.manager posx ETV
vector 145 RSUExampleScenario.manager posy ETV
vector 146 RSUExampleScenario.manager speed ETV
vector 147 RSUExampleScenario.manager acceleration ETV
vector 148 RSUExampleScenario.manager co2emission ETV
vector 149 RSUExampleScenario.node[21].nic.phy80211p RadioState ETV
vector 150 RSUExampleScenario.node[21].nic.phy80211p RadioChannel ETV
vector 151 RSUExampleScenario.manager posx ETV
vector 152 RSUExampleScenario.manager posy ETV
vector 153 RSUExampleScenario.manager speed ETV
vector 154 RSUExampleScenario.manager acceleration ETV
vector 155 RSUExampleScenario.manager co2emission ETV
vector 156 RSUExampleScenario.node[22].nic.phy80211p RadioState ETV
vector 157 RSUExampleScenario.node[22].nic.phy80211p RadioChannel ETV
vector 158 RSUExampleScenario.manager posx ETV
vector 159 RSUExampleScenario.manager posy ETV
vector 160 RSUExampleScenario.manager speed ETV
vector 161 RSUExampleScenario.manager acceleration ETV
vector 162 RSUExampleScenario.manager co2emission ETV
vector 163 RSUExampleScenario.node[23].nic.phy80211p RadioState ETV
vector 164 RSUExampleScenario.node[23].nic.phy80211p RadioChannel ETV
vector 165 RSUExampleScenario.manager posx ETV
vector 166 RSUExampleScenario.manager posy ETV
vector 167 RSUExampleScenario.manager speed ETV
vector 168 RSUExampleScenario.manager acceleration ETV
vector 169 RSUExampleScenario.manager co2emission ETV
vector 170 RSUExampleScenario.node[24].nic.phy80211p RadioState ETV
vector 171 RSUExampleScenario.node[24].nic.phy80211p RadioChannel ETV
vector 172 RSUExampleScenario.manager posx ETV
vector 173 RSUExampleScenario.manager posy ETV
vector 174 RSUExampleScenario.manager speed ETV
vector 175 RSUExampleScenario.manager acceleration ETV
vector 176 RSUExampleScenario.manager co2emission ETV
vector 177 RSUExampleScenario.node[25].nic.phy80211p RadioState ETV
vector 178 RSUExampleScenario.node[25].nic.phy80211p RadioChannel ETV
vector 179 RSUExampleScenario.manager posx ETV
vector 180 RSUExampleScenario.manager posy ETV
vector 181 RSUExampleScenario.manager speed ETV
vector 182 RSUExampleScenario.manager acceleration ETV
vector 183 RSUExampleScenario.manager co2emission ETV
vector 184 RSUExampleScenario.node[26].nic.phy80211p RadioState ETV
vector 185 RSUExampleScenario.node[26].nic.phy80211p RadioChannel ETV
vector 186 RSUExampleScenario.manager posx ETV
vector 187 RSUExampleScenario.manager posy ETV
vector 188 RSUExampleScenario.manager speed ETV
vector 189 RSUExampleScenario.manager acceleration ETV
vector 190 RSUExampleScenario.manager co2emission ETV
vector 191 RSUExampleScenario.node[27].nic.phy80211p RadioState ETV
vector 192 RSUExampleScenario.node[27].nic.phy80211p RadioChannel ETV
vector 193 RSUExampleScenario.manager posx ETV
vector 194 RSUExampleScenario.manager posy ETV
vector 195 RSUExampleScenario.manager speed ETV
vector 196 RSUExampleScenario.manager acceleration ETV
vector 197 RSUExampleScenario.manager co2emission ETV
vector 198 RSUExampleScenario.node[28].nic.phy80211p RadioState ETV
vector 199 RSUExampleScenario.node[28].nic.phy80211p RadioChannel ETV
vector 200 RSUExampleScenario.manager posx ETV
vector 201 RSUExampleScenario.manager posy ETV
vector 202 RSUExampleScenario.manager speed ETV
vector 203 RSUExampleScenario.manager acceleration ETV
vector 204 RSUExampleScenario.manager co2emission ETV
vector 205 RSUExampleScenario.node[29].nic.phy80211p RadioState ETV
vector 206 RSUExampleScenario.node[29].nic.phy80211p RadioChannel ETV
vector 207 RSUExampleScenario.manager posx ETV
vector 208 RSUExampleScenario.manager posy ETV
vector 209 RSUExampleScenario.manager speed ETV
vector 210 RSUExampleScenario.manager acceleration ETV
vector 211 RSUExampleScenario.manager co2emission ETV
vector 212 RSUExampleScenario.node[30].nic.phy80211p RadioState ETV
vector 213 RSUExampleScenario.node[30].nic.phy80211p RadioChannel ETV
vector 214 RSUExampleScenario.manager posx ETV
vector 215 RSUExampleScenario.manager posy ETV
vector 216 RSUExampleScenario.manager speed ETV
vector 217 RSUExampleScenario.manager acceleration ETV
vector 218 RSUExampleScenario.manager co2emission ETV
vector 219 RSUExampleScenario.node[31].nic.phy80211p RadioState ETV
vector 220 RSUExampleScenario.node[31].nic.phy80211p RadioChannel ETV
vector 221 RSUExampleScenario.manager posx ETV
vector 222 RSUExampleScenario.manager posy ETV
vector 223 RSUExampleScenario.manager speed ETV
vector 224 RSUExampleScenario.manager acceleration ETV
vector 225 RSUExampleScenario.manager co2emission ETV
vector 226 RSUExampleScenario.node[32].nic.phy80211p RadioState ETV
vector 227 RSUExampleScenario.node[32].nic.phy80211p RadioChannel ETV
vector 228 RSUExampleScenario.manager posx ETV
vector 229 RSUExampleScenario.manager posy ETV
vector 230 RSUExampleScenario.manager speed ETV
vector 231 RSUExampleScenario.manager acceleration ETV
vector 232 RSUExampleScenario.manager co2emission ETV
vector 233 RSUExampleScenario.node[33].nic.phy80211p RadioState ETV
vector 234 RSUExampleScenario.node[33].nic.phy80211p RadioChannel ETV
vector 235 RSUExampleScenario.manager posx ETV
vector 236 RSUExampleScenario.manager posy ETV
vector 237 RSUExampleScenario.manager speed ETV
vector 238 RSUExampleScenario.manager acceleration ETV
vector 239 RSUExampleScenario.manager co2emission ETV
vector 240 RSUExampleScenario.node[34].nic.phy80211p RadioState ETV
vector 241 RSUExampleScenario.node[34].nic.phy80211p RadioChannel ETV
vector 242 RSUExampleScenario.manager posx ETV
vector 243 RSUExampleScenario.manager posy ETV
vector 244 RSUExampleScenario.manager speed ETV
vector 245 RSUExampleScenario.manager acceleration ETV
vector 246 RSUExampleScenario.manager co2emission ETV
vector 247 RSUExampleScenario.node[35].nic.phy80211p RadioState ETV
vector 248 RSUExampleScenario.node[35].nic.phy80211p RadioChannel ETV
vector 249 RSUExampleScenario.manager posx ETV
vector 250 RSUExampleScenario.manager posy ETV
vector 251 RSUExampleScenario.manager speed ETV
vector 252 RSUExampleScenario.manager acceleration ETV
vector 253 RSUExampleScenario.manager co2emission ETV
vector 254 RSUExampleScenario.node[36].nic.phy80211p RadioState ETV
vector 255 RSUExampleScenario.node[36].nic.phy80211p RadioChannel ETV
vector 256 RSUExampleScenario.manager posx ETV
vector 257 RSUExampleScenario.manager posy ETV
vector 258 RSUExampleScenario.manager speed ETV
vector 259 RSUExampleScenario.manager acceleration ETV
vector 260 RSUExampleScenario.manager co2emission ETV
vector 261 RSUExampleScenario.node[37].nic.phy80211p RadioState ETV
vector 262 RSUExampleScenario.node[37].nic.phy80211p RadioChannel ETV
vector 263 RSUExampleScenario.manager posx ETV
vector 264 RSUExampleScenario.manager posy ETV
vector 265 RSUExampleScenario.manager speed ETV
vector 266 RSUExampleScenario.manager acceleration ETV
vector 267 RSUExampleScenario.manager co2emission ETV
vector 268 RSUExampleScenario.node[38].nic.phy80211p RadioState ETV
vector 269 RSUExampleScenario.node[38].nic.phy80211p RadioChannel ETV
vector 270 RSUExampleScenario.manager posx ETV
vector 271 RSUExampleScenario.manager posy ETV
vector 272 RSUExampleScenario.manager speed ETV
vector 273 RSUExampleScenario.manager acceleration ETV
vector 274 RSUExampleScenario.manager co2emission ETV
vector 275 RSUExampleScenario.node[39].nic.phy80211p RadioState ETV
vector 276 RSUExampleScenario.node[39].nic.phy80211p RadioChannel ETV
vector 277 RSUExampleScenario.manager posx ETV
vector 278 RSUExampleScenario.manager posy ETV
vector 279 RSUExampleScenario.manager speed ETV
vector 280 RSUExampleScenario.manager acceleration ETV
vector 281 RSUExampleScenario.manager co2emission ETV
vector 282 RSUExampleScenario.node[40].nic.phy80211p RadioState ETV
vector 283 RSUExampleScenario.node[40].nic.phy80211p RadioChannel ETV
vector 284 RSUExampleScenario.manager posx ETV
vector 285 RSUExampleScenario.manager posy ETV
vector 286 RSUExampleScenario.manager speed ETV
vector 287 RSUExampleScenario.manager acceleration ETV
vector 288 RSUExampleScenario.manager co2emission ETV
vector 289 RSUExampleScenario.node[41].nic.phy80211p RadioState ETV
vector 290 RSUExampleScenario.node[41].nic.phy80211p RadioChannel ETV
vector 291 RSUExampleScenario.manager posx ETV
vector 292 RSUExampleScenario.manager posy ETV
vector 293 RSUExampleScenario.manager speed ETV
vector 294 RSUExampleScenario.manager acceleration ETV
vector 295 RSUExampleScenario.manager co2emission ETV
vector 296 RSUExampleScenario.node[42].nic.phy80211p RadioState ETV
vector 297 RSUExampleScenario.node[42].nic.phy80211p RadioChannel ETV
vector 298 RSUExampleScenario.manager posx ETV
vector 299 RSUExampleScenario.manager posy ETV
vector 300 RSUExampleScenario.manager speed ETV
vector 301 RSUExampleScenario.manager acceleration ETV
vector 302 RSUExampleScenario.manager co2emission ETV
vector 303 RSUExampleScenario.node[43].nic.phy80211p RadioState ETV
vector 304 RSUExampleScenario.node[43].nic.phy80211p RadioChannel ETV
vector 305 RSUExampleScenario.manager posx ETV
vector 306 RSUExampleScenario.manager posy ETV
vector 307 RSUExampleScenario.manager speed ETV
vector 308 RSUExampleScenario.manager acceleration ETV
vector 309 RSUExampleScenario.manager co2emission ETV
vector 310 RSUExampleScenario.node[44].nic.phy80211p RadioState ETV
vector 311 RSUExampleScenario.node[44].nic.phy80211p RadioChannel ETV
vector 312 RSUExampleScenario.manager posx ETV
vector 313 RSUExampleScenario.manager posy ETV
vector 314 RSUExampleScenario.manager speed ETV
vector 315 RSUExampleScenario.manager acceleration ETV
vector 316 RSUExampleScenario.manager co2emission ETV
vector 317 RSUExampleScenario.node[45].nic.phy80211p RadioState ETV
vector 318 RSUExampleScenario.node[45].nic.phy80211p RadioChannel ETV
vector 319 RSUExampleScenario.manager posx ETV
vector 320 RSUExampleScenario.manager posy ETV
vector 321 RSUExampleScenario.manager speed ETV
vector 322 RSUExampleScenario.manager acceleration ETV
vector 323 RSUExampleScenario.manager co2emission ETV
vector 324 RSUExampleScenario.node[46].nic.phy80211p RadioState ETV
vector 325 RSUExampleScenario.node[46].nic.phy80211p RadioChannel ETV
vector 326 RSUExampleScenario.manager posx ETV
vector 327 RSUExampleScenario.manager posy ETV
vector 328 RSUExampleScenario.manager speed ETV
vector 329 RSUExampleScenario.manager acceleration ETV
vector 330 RSUExampleScenario.manager co2emission ETV
vector 331 RSUExampleScenario.node[47].nic.phy80211p RadioState ETV
vector 332 RSUExampleScenario.node[47].nic.phy80211p RadioChannel ETV
vector 333 RSUExampleScenario.manager posx ETV
vector 334 RSUExampleScenario.manager posy ETV
vector 335 RSUExampleScenario.manager speed ETV
vector 336 RSUExampleScenario.manager acceleration ETV
vector 337 RSUExampleScenario.manager co2emission ETV
vector 338 RSUExampleScenario.node[48].nic.phy80211p RadioState ETV
vector 339 RSUExampleScenario.node[48].nic.phy80211p RadioChannel ETV
vector 340 RSUExampleScenario.manager posx ETV
vector 341 RSUExampleScenario.manager posy ETV
vector 342 RSUExampleScenario.manager speed ETV
vector 343 RSUExampleScenario.manager acceleration ETV
vector 344 RSUExampleScenario.manager co2emission ETV
vector 345 RSUExampleScenario.node[49].nic.phy80211p RadioState ETV
vector 346 RSUExampleScenario.node[49].nic.phy80211p RadioChannel ETV
vector 347 RSUExampleScenario.manager posx ETV
vector 348 RSUExampleScenario.manager posy ETV
vector 349 RSUExampleScenario.manager speed ETV
vector 350 RSUExampleScenario.manager acceleration ETV
vector 351 RSUExampleScenario.manager co2emission ETV
vector 352 RSUExampleScenario.node[50].nic.phy80211p RadioState ETV
vector 353 RSUExampleScenario.node[50].nic.phy80211p RadioChannel ETV
vector 354 RSUExampleScenario.manager posx ETV
vector 355 RSUExampleScenario.manager posy ETV
vector 356 RSUExampleScenario.manager speed ETV
vector 357 RSUExampleScenario.manager acceleration ETV
vector 358 RSUExampleScenario.manager co2emission ETV
vector 359 RSUExampleScenario.node[51].nic.phy80211p RadioState ETV
vector 360 RSUExampleScenario.node[51].nic.phy80211p RadioChannel ETV
vector 361 RSUExampleScenario.manager posx ETV
vector 362 RSUExampleScenario.manager posy ETV
vector 363 RSUExampleScenario.manager speed ETV
vector 364 RSUExampleScenario.manager acceleration ETV
vector 365 RSUExampleScenario.manager co2emission ETV
vector 366 RSUExampleScenario.node[52].nic.phy80211p RadioState ETV
vector 367 RSUExampleScenario.node[52].nic.phy80211p RadioChannel ETV
vector 368 RSUExampleScenario.manager posx ETV
vector 369 RSUExampleScenario.manager posy ETV
vector 370 RSUExampleScenario.manager speed ETV
vector 371 RSUExampleScenario.manager acceleration ETV
vector 372 RSUExampleScenario.manager co2emission ETV
vector 373 RSUExampleScenario.node[53].nic.phy80211p RadioState ETV
vector 374 RSUExampleScenario.node[53].nic.phy80211p RadioChannel ETV
vector 375 RSUExampleScenario.manager posx ETV
vector 376 RSUExampleScenario.manager posy ETV
vector 377 RSUExampleScenario.manager speed ETV
vector 378 RSUExampleScenario.manager acceleration ETV
vector 379 RSUExampleScenario.manager co2emission ETV
vector 380 RSUExampleScenario.node[54].nic.phy80211p RadioState ETV
vector 381 RSUExampleScenario.node[54].nic.phy80211p RadioChannel ETV
vector 382 RSUExampleScenario.manager posx ETV
vector 383 RSUExampleScenario.manager posy ETV
vector 384 RSUExampleScenario.manager speed ETV
vector 385 RSUExampleScenario.manager acceleration ETV
vector 386 RSUExampleScenario.manager co2emission ETV
vector 387 RSUExampleScenario.node[55].nic.phy80211p RadioState ETV
vector 388 RSUExampleScenario.node[55].nic.phy80211p RadioChannel ETV
vector 389 RSUExampleScenario.manager posx ETV
vector 390 RSUExampleScenario.manager posy ETV
vector 391 RSUExampleScenario.manager speed ETV
vector 392 RSUExampleScenario.manager acceleration ETV
vector 393 RSUExampleScenario.manager co2emission ETV
vector 394 RSUExampleScenario.node[56].nic.phy80211p RadioState ETV
vector 395 RSUExampleScenario.node[56].nic.phy80211p RadioChannel ETV
vector 396 RSUExampleScenario.manager posx ETV
vector 397 RSUExampleScenario.manager posy ETV
vector 398 RSUExampleScenario.manager speed ETV
vector 399 RSUExampleScenario.manager acceleration ETV
vector 400 RSUExampleScenario.manager co2emission ETV
vector 401 RSUExampleScenario.node[57].nic.phy80211p RadioState ETV
vector 402 RSUExampleScenario.node[57].nic.phy80211p RadioChannel ETV
vector 403 RSUExampleScenario.manager posx ETV
vector 404 RSUExampleScenario.manager posy ETV
vector 405 RSUExampleScenario.manager speed ETV
vector 406 RSUExampleScenario.manager acceleration ETV
vector 407 RSUExampleScenario.manager co2emission ETV
vector 408 RSUExampleScenario.node[58].nic.phy80211p RadioState ETV
vector 409 RSUExampleScenario.node[58].nic.phy80211p RadioChannel ETV
vector 410 RSUExampleScenario.manager posx ETV
vector 411 RSUExampleScenario.manager posy ETV
vector 412 RSUExampleScenario.manager speed ETV
vector 413 RSUExampleScenario.manager acceleration ETV
vector 414 RSUExampleScenario.manager co2emission ETV
vector 415 RSUExampleScenario.node[59].nic.phy80211p RadioState ETV
vector 416 RSUExampleScenario.node[59].nic.phy80211p RadioChannel ETV
vector 417 RSUExampleScenario.manager posx ETV
vector 418 RSUExampleScenario.manager posy ETV
vector 419 RSUExampleScenario.manager speed ETV
vector 420 RSUExampleScenario.manager acceleration ETV
vector 421 RSUExampleScenario.manager co2emission ETV
vector 422 RSUExampleScenario.node[60].nic.phy80211p RadioState ETV
vector 423 RSUExampleScenario.node[60].nic.phy80211p RadioChannel ETV
vector 424 RSUExampleScenario.manager posx ETV
vector 425 RSUExampleScenario.manager posy ETV
vector 426 RSUExampleScenario.manager speed ETV
vector 427 RSUExampleScenario.manager acceleration ETV
vector 428 RSUExampleScenario.manager co2emission ETV
vector 429 RSUExampleScenario.node[61].nic.phy80211p RadioState ETV
vector 430 RSUExampleScenario.node[61].nic.phy80211p RadioChannel ETV
vector 431 RSUExampleScenario.manager posx ETV
vector 432 RSUExampleScenario.manager posy ETV
vector 433 RSUExampleScenario.manager speed ETV
vector 434 RSUExampleScenario.manager acceleration ETV
vector 435 RSUExampleScenario.manager co2emission ETV
vector 436 RSUExampleScenario.node[62].nic.phy80211p RadioState ETV
vector 437 RSUExampleScenario.node[62].nic.phy80211p RadioChannel ETV
vector 438 RSUExampleScenario.manager posx ETV
vector 439 RSUExampleScenario.manager posy ETV
vector 440 RSUExampleScenario.manager speed ETV
vector 441 RSUExampleScenario.manager acceleration ETV
vector 442 RSUExampleScenario.manager co2emission ETV
vector 443 RSUExampleScenario.node[63].nic.phy80211p RadioState ETV
vector 444 RSUExampleScenario.node[63].nic.phy80211p RadioChannel ETV
vector 445 RSUExampleScenario.manager posx ETV
vector 446 RSUExampleScenario.manager posy ETV
vector 447 RSUExampleScenario.manager speed ETV
vector 448 RSUExampleScenario.manager acceleration ETV
vector 449 RSUExampleScenario.manager co2emission ETV
vector 450 RSUExampleScenario.node[64].nic.phy80211p RadioState ETV
vector 451 RSUExampleScenario.node[64].nic.phy80211p RadioChannel ETV
vector 452 RSUExampleScenario.manager posx ETV
vector 453 RSUExampleScenario.manager posy ETV
vector 454 RSUExampleScenario.manager speed ETV
vector 455 RSUExampleScenario.manager acceleration ETV
vector 456 RSUExampleScenario.manager co2emission ETV
vector 457 RSUExampleScenario.node[65].nic.phy80211p RadioState ETV
vector 458 RSUExampleScenario.node[65].nic.phy80211p RadioChannel ETV
vector 459 RSUExampleScenario.manager posx ETV
vector 460 RSUExampleScenario.manager posy ETV
vector 461 RSUExampleScenario.manager speed ETV
vector 462 RSUExampleScenario.manager acceleration ETV
vector 463 RSUExampleScenario.manager co2emission ETV
vector 464 RSUExampleScenario.node[66].nic.phy80211p RadioState ETV
vector 465 RSUExampleScenario.node[66].nic.phy80211p RadioChannel ETV
vector 466 RSUExampleScenario.manager posx ETV
vector 467 RSUExampleScenario.manager posy ETV
vector 468 RSUExampleScenario.manager speed ETV
4	2	1	2414.8476884116
4	4	2	2411.8243290941
4	6	3	2407.1592244543
4	8	4	2402.288200066
4	11	5	2396.1394374635
4	14	6	2388.6993875942
4	17	7	2379.889221533
4	21	8	2370.1207192459
4	25	9	2360.3141803208
4	29	10	2350.5099475634
4	34	11	2341.0010868867
4	39	12	2334.5620136983
4	44	13	2337.6803779466
4	50	14	2348.3497968862
4	56	15	2358.6961674725
4	62	16	2371.6616533546
4	69	17	2385.4706804305
4	76	18	2399.3588350668
4	83	19	2412.4541998667
4	91	20	2421.4418196582
4	99	21	2428.417609864
4	107	22	2431.468930052
4	116	23	2433.1513403206
4	125	24	2435.1237040944
4	134	25	2437.2173147583
4	144	26	2438.6437980286
4	154	27	2439.5074353185
4	164	28	2440.517813261
4	175	29	2441.5286354903
4	186	30	2442.5392864447
4	197	31	2443.5505626462
4	209	32	2444.5611125134
4	221	33	2445.5724211388
4	233	34	2446.5834693939
4	246	35	2447.5934051003
4	259	36	2448.6036931522
4	272	37	2449.6148620235
4	286	38	2450.6248001783
4	300	39	2449.5880553933
4	314	40	2448.4757357414
4	329	41	2447.3635385588
4	344	42	2446.250303259
4	359	43	2445.1365203297
4	375	44	2444.0235521834
4	391	45	2442.9111769209
4	407	46	2441.7982721732
4	424	47	2440.6856421625
4	441	48	2439.7151308154
4	458	49	2438.7725309408
4	476	50	2437.9056889905
4	494	51	2432.8785054281
4	512	52	2422.5273191113
4	531	53	2409.439604845
4	550	54	2395.517893619
4	569	55	2381.592286239
4	589	56	2367.6659531716
4	609	57	2353.7601239877
4	629	58	2339.8337569573
4	650	59	2325.9069679289
4	671	60	2311.9542202253
4	692	61	2298.0325140053
4	714	62	2284.0857072632
4	736	63	2270.1754193477
4	758	64	2256.2378749268
4	781	65	2242.3725172955
4	804	66	2228.5623045168
4	827	67	2214.8068758136
4	851	68	2201.6159272967
4	875	69	2188.41049514
4	899	70	2175.4595331684
4	924	71	2163.4460695032
4	949	72	2152.2029822947
4	974	73	2144.5427125699
4	1001	74	2140.7603855053
4	1027	75	2140.3234504706
4	1053	76	2140.3234504706
4	1080	77	2140.3234504706
4	1107	78	2140.3234504706
4	1134	79	2140.3234504706
4	1162	80	2140.3234504706
4	1190	81	2140.3234504706
4	1218	82	2140.3234504706
4	1247	83	2140.3234504706
4	1276	84	2140.3234504706
4	1305	85	2140.3234504706
4	1335	86	2140.3234504706
4	1365	87	2140.3234504706
4	1395	88	2140.3234504706
4	1426	89	2140.3234504706
4	1457	90	2140.3234504706
4	1488	91	2140.3234504706
4	1520	92	2140.3234504706
4	1552	93	2140.3234504706
4	1584	94	2140.3234504706
4	1617	95	2140.3234504706
4	1650	96	2140.3234504706
4	1683	97	2140.3234504706
4	1717	98	2140.3234504706
4	1751	99	2140.3234504706
4	1785	100	2140.3234504706
4	1820	101	2140.3234504706
4	1855	102	2140.3234504706
4	1890	103	2140.3234504706
4	1927	104	2140.3234504706
4	1963	105	2140.3234504706
4	1999	106	2140.3234504706
4	2036	107	2140.3234504706
4	2073	108	2140.3234504706
4	2110	109	2140.3234504706
4	2148	110	2140.3234504706
4	2186	111	2140.3234504706
4	2224	112	2140.3234504706
4	2263	113	2140.3234504706
4	2302	114	2140.3234504706
4	2341	115	2140.3234504706
4	2381	116	2140.3234504706
4	2421	117	2140.3234504706
4	2461	118	2140.3234504706
4	2502	119	2140.3234504706
4	2543	120	2140.3234504706
4	2584	121	2140.3234504706
4	2626	122	2140.3234504706
4	2668	123	2140.3234504706
4	2711	124	2139.2991757134
4	2754	125	2136.740978117
4	2797	126	2133.0437330272
4	2840	127	2128.0124995244
4	2884	128	2121.6776393328
4	2928	129	2113.9053156064
4	2972	130	2104.7718132839
4	3017	131	2095.2426245916
4	3062	132	2085.7055441276
4	3107	133	2076.1895091444
4	3154	134	2066.6453758157
4	3200	135	2057.1233999465
4	3246	136	2047.583753188
4	3293	137	2037.6024164768
4	3340	138	2027.6027097306
4	3387	139	2017.6025945829
4	3435	140	2007.6323289589
4	3483	141	1997.6345246225
4	3531	142	1987.6493390393
4	3580	143	1977.6474462437
4	3629	144	1967.6534846346
4	3678	145	1957.6399751548
4	3728	146	1947.6342267399
4	3778	147	1937.6494381753
4	3828	148	1927.928621011
4	3879	149	1918.1922363789
4	3930	150	1908.4659643128
4	3981	151	1898.7310320458
4	4033	152	1888.9856289678
4	4085	153	1879.2423715481
4	4138	154	1869.5010189842
4	4191	155	1859.7669972274
4	4244	156	1850.0458060472
4	4297	157	1840.3217494305
4	4351	158	1830.3623135871
4	4405	159	1820.2507284771
4	4459	160	1810.1499691318
4	4514	161	1800.1768924127
4	4569	162	1790.2264887124
4	4624	163	1780.2619667375
4	4681	164	1770.3013567271
4	4737	165	1760.355369436
4	4793	166	1750.3975141611
4	4850	167	1740.4401156085
4	4907	168	1730.4731193862
4	4964	169	1720.5177903826
4	5022	170	1710.5642872168
4	5080	171	1700.6247857276
4	5138	172	1690.6660600266
4	5197	173	1680.7239540648
4	5256	174	1670.7639126923
4	5315	175	1660.8062731932
4	5375	176	1650.8428831969
4	5435	177	1640.8988660362
4	5495	178	1630.9505771939
4	5556	179	1621.0011728655
4	5617	180	1611.2169178124
4	5678	181	1601.406057158
4	5740	182	1591.5816465307
4	6022	183	1581.7654885541
4	6306	184	1571.9460328016
4	6815	185	1562.1425790023
4	7544	186	1551.7188460099
4	8497	187	1541.1711137802
4	9685	188	1530.6170686011
4	11110	189	1520.0545062125
4	12541	190	1509.4988027049
4	14231	191	1498.4726457515
4	15931	192	1487.0601858251
4	17879	193	1475.6552925752
4	20109	194	1464.2593597289
4	22357	195	1452.834655975
4	24861	196	1440.6560960492
4	27623	197	1428.0478429439
4	30631	198	1415.4093963348
4	33882	199	1402.7775768915
4	37399	200	1389.5147644829
5	2	1	1578.4613427464
5	4	2	1579.5715045081
5	6	3	1581.5561876604
5	8	4	1586.4898643075
5	11	5	1592.7177137369
5	14	6	1600.2534592729
5	17	7	1609.1769437566
5	21	8	1619.0710908128
5	25	9	1629.0037637418
5	29	10	1638.9341008412
5	34	11	1649.1129276818
5	39	12	1661.0453354148
5	44	13	1673.5713017788
5	50	14	1682.4825292248
5	56	15	1691.8131453674
5	62	16	1695.5671389326
5	69	17	1697.3762977775
5	76	18	1698.7149431584
5	83	19	1699.9531973498
5	91	20	1700.8030368192
5	99	21	1701.4822415169
5	107	22	1709.488976148
5	116	23	1720.5600911779
5	125	24	1733.5392477075
5	134	25	1747.3162704222
5	144	26	1761.1584832035
5	154	27	1775.0702432813
5	164	28	1788.9649324082
5	175	29	1802.8657313576
5	186	30	1816.7641749373
5	197	31	1830.6712168986
5	209	32	1844.5682703312
5	221	33	1858.4757581847
5	233	34	1872.3796654344
5	246	35	1886.2682729438
5	259	36	1900.1617258992
5	272	37	1914.0672918586
5	286	38	1927.95593304
5	300	39	1941.8192613758
5	314	40	1955.7024557721
5	329	41	1969.5841215905
5	344	42	1983.4787444612
5	359	43	1997.3802024601
5	375	44	2011.2714909082
5	391	45	2025.1553793969
5	407	46	2039.0458765477
5	424	47	2052.9329446238
5	441	48	2066.8462265795
5	458	49	2080.7728807703
5	476	50	2094.6498483503
5	494	51	2107.3969092406
5	512	52	2116.410831539
5	531	53	2120.9360540062
5	550	54	2120.5048353085
5	569	55	2120.0344859883
5	589	56	2119.5641121576
5	609	57	2119.0944308629
5	629	58	2118.6240558857
5	650	59	2118.1536666537
5	671	60	2117.6824006466
5	692	61	2117.2121830918
5	714	62	2116.7411177447
5	736	63	2116.2712858524
5	758	64	2115.8005333487
5	781	65	2114.7955725584
5	804	66	2112.8371776454
5	827	67	2110.6451732265
5	851	68	2106.1714176713
5	875	69	2101.6927499389
5	899	70	2096.6090699211
5	924	71	2089.5369335469
5	949	72	2082.9183056299
5	974	73	2078.4088257942
5	1001	74	2076.1822295729
5	1027	75	2075.9250128167
5	1053	76	2075.9250128167
5	1080	77	2075.9250128167
5	1107	78	2075.9250128167
5	1134	79	2075.9250128167
5	1162	80	2075.9250128167
5	1190	81	2075.9250128167
5	1218	82	2075.9250128167
5	1247	83	2075.9250128167
5	1276	84	2075.9250128167
5	1305	85	2075.9250128167
5	1335	86	2075.9250128167
5	1365	87	2075.9250128167
5	1395	88	2075.9250128167
5	1426	89	2075.9250128167
5	1457	90	2075.9250128167
5	1488	91	2075.9250128167
5	1520	92	2075.9250128167
5	1552	93	2075.9250128167
5	1584	94	2075.9250128167
5	1617	95	2075.9250128167
5	1650	96	2075.9250128167
5	1683	97	2075.9250128167
5	1717	98	2075.9250128167
5	1751	99	2075.9250128167
5	1785	100	2075.9250128167
5	1820	101	2075.9250128167
5	1855	102	2075.9250128167
5	1890	103	2075.9250128167
5	1927	104	2075.9250128167
5	1963	105	2075.9250128167
5	1999	106	2075.9250128167
5	2036	107	2075.9250128167
5	2073	108	2075.9250128167
5	2110	109	2075.9250128167
5	2148	110	2075.9250128167
5	2186	111	2075.9250128167
5	2224	112	2075.9250128167
5	2263	113	2075.9250128167
5	2302	114	2075.9250128167
5	2341	115	2075.9250128167
5	2381	116	2075.9250128167
5	2421	117	2075.9250128167
5	2461	118	2075.9250128167
5	2502	119	2075.9250128167
5	2543	120	2075.9250128167
5	2584	121	2075.9250128167
5	2626	122	2075.9250128167
5	2668	123	2075.9250128167
5	2711	124	2075.1267298609
5	2754	125	2072.866368236
5	2797	126	2068.9195549712
5	2840	127	2063.5487075839
5	2884	128	2056.7862372501
5	2928	129	2048.4892729856
5	2972	130	2038.7392490497
5	3017	131	2028.5668294709
5	3062	132	2018.3859854173
5	3107	133	2008.2276074374
5	3154	134	1998.0392344436
5	3200	135	1987.8745145611
5	3246	136	1977.7373199994
5	3293	137	1968.0344733419
5	3340	138	1958.3137691934
5	3387	139	1948.5926680388
5	3435	140	1938.9005835736
5	3483	141	1929.1817287551
5	3531	142	1919.4751406135
5	3580	143	1909.7523114095
5	3629	144	1900.0371921025
5	3678	145	1890.3030703319
5	3728	146	1880.5764930835
5	3778	147	1870.8686820688
5	3828	148	1860.9073696751
5	3879	149	1850.930104672
5	3930	150	1840.9632024206
5	3981	151	1830.9874257138
5	4033	152	1821.0009191455
5	4085	153	1811.01661132
5	4138	154	1801.0342554757
5	4191	155	1791.0594118051
5	4244	156	1781.0977161424
5	4297	157	1771.1330841519
5	4351	158	1761.3972956436
5	4405	159	1751.7938673962
5	4459	160	1742.2007208653
5	4514	161	1732.4566419283
5	4569	162	1722.7051216755
5	4624	163	1712.939765336
5	4681	164	1703.1782427719
5	4737	165	1693.4310506545
5	4793	166	1683.6722277654
5	4850	167	1673.9138524691
5	4907	168	1664.1460713372
5	4964	169	1654.3897242248
5	5022	170	1644.6351664569
5	5080	171	1634.8943305071
5	5138	172	1625.1346545899
5	5197	173	1615.391266224
5	5256	174	1605.6303009316
5	5315	175	1595.8716895059
5	5375	176	1586.1074425196
5	5435	177	1576.362181155
5	5495	178	1566.6127334898
5	5556	179	1556.8621926336
5	5617	180	1547.0969516989
5	5678	181	1537.193341312
5	5740	182	1527.2760528531
5	6022	183	1517.3670950644
5	6306	184	1507.4548083227
5	6815	185	1497.5586748132
5	7544	186	1488.2961548949
5	8497	187	1479.172309787
5	9685	188	1470.0430039447
5	11110	189	1460.9063306702
5	12541	190	1451.7755903648
5	14231	191	1443.2296422943
5	15931	192	1435.1870435383
5	17879	193	1427.1497771768
5	20109	194	1419.1188253993
5	22357	195	1411.0675981613
5	24861	196	1404.3439241508
5	27623	197	1398.3996409876
5	30631	198	1392.4411228038
5	33882	199	1386.485729062
5	37399	200	1382.1386472574
6	4	2	4.1061966058897
6	6	3	6.0195495591482
6	8	4	7.7148368984793
6	11	5	9.5879868385225
6	14	6	11.391389363371
6	17	7	13.513839789145
6	21	8	13.99235115225
6	25	9	13.890224446259
6	29	10	13.976677174468
6	34	11	13.994826577434
6	39	12	13.923680325528
6	44	13	13.923542996629
6	50	14	13.91007151508
6	56	15	13.964598868005
6	62	16	13.995233640105
6	69	17	13.952304350403
6	76	18	13.956911946491
6	83	19	11.503494614513
6	91	20	7.0034946145128
6	99	21	7.8970062485022
6	107	22	10.10483181514
6	116	23	11.990706169653
6	125	24	13.981089308816
6	134	25	13.965594365916
6	144	26	13.989059597438
6	154	27	13.956378436291
6	164	28	13.910982951869
6	175	29	13.88918493646
6	186	30	13.908189346099
6	197	31	13.983992603337
6	209	32	13.971500478752
6	221	33	13.873081948087
6	233	34	13.985133641064
6	246	35	13.886848415199
6	259	36	13.876205747321
6	272	37	13.967912819823
6	286	38	13.871047234884
6	300	39	13.89239756926
6	314	40	13.872267716837
6	329	41	13.999815066161
6	344	42	13.964707984752
6	359	43	13.906584702837
6	375	44	13.922364303169
6	391	45	13.929034490574
6	407	46	13.93922677479
6	424	47	13.924399639922
6	441	48	13.96850544848
6	458	49	13.986686690277
6	476	50	13.935194088209
6	494	51	13.930097484484
6	512	52	13.948393711536
6	531	53	13.882971800906
6	550	54	13.87138918183
6	569	55	13.933780807857
6	589	56	13.942265776542
6	609	57	13.95140511482
6	629	58	13.886548467774
6	650	59	13.920721456567
6	671	60	13.906796863726
6	692	61	13.917803910668
6	714	62	13.924582225601
6	736	63	13.959688465288
6	758	64	13.957318032989
6	781	65	13.940553226951
6	804	66	13.879855337965
6	827	67	13.977758804618
6	851	68	13.914176650653
6	875	69	13.928041475909
6	899	70	13.977535404016
6	924	71	13.928572678084
6	949	72	11.364046791626
6	974	73	6.8640467916256
6	1001	74	2.3640467916256
6	1027	75	0
6	1053	76	0
6	1080	77	0
6	1107	78	0
6	1134	79	0
6	1162	80	0
6	1190	81	0
6	1218	82	0
6	1247	83	0
6	1276	84	0
6	1305	85	0
6	1335	86	0
6	1365	87	0
6	1395	88	0
6	1426	89	0
6	1457	90	0
6	1488	91	0
6	1520	92	0
6	1552	93	0
6	1584	94	0
6	1617	95	0
6	1650	96	0
6	1683	97	0
6	1717	98	0
6	1751	99	0
6	1785	100	0
6	1820	101	0
6	1855	102	0
6	1890	103	0
6	1927	104	0
6	1963	105	0
6	1999	106	0
6	2036	107	0
6	2073	108	0
6	2110	109	0
6	2148	110	0
6	2186	111	0
6	2224	112	0
6	2263	113	0
6	2302	114	0
6	2341	115	0
6	2381	116	0
6	2421	117	0
6	2461	118	0
6	2502	119	0
6	2543	120	0
6	2584	121	0
6	2626	122	0
6	2668	123	0
6	2711	124	2.2219942613752
6	2754	125	4.3816652589273
6	2797	126	6.271098397682
6	2840	127	8.1846742143464
6	2884	128	10.238758130733
6	2928	129	12.368734642219
6	2972	130	13.962109271805
6	3017	131	13.914205637665
6	3062	132	13.944517719341
6	3107	133	13.879619830472
6	3154	134	13.987641519217
6	3200	135	13.937885804954
6	3246	136	13.882018232113
6	3293	137	13.88185503117
6	3340	138	13.976765545025
6	3387	139	13.936144929281
6	3435	140	13.881702132632
6	3483	141	13.95778504122
6	3531	142	13.918313275371
6	3580	143	13.927667983579
6	3629	144	13.959930952911
6	3678	145	13.997377569969
6	3728	146	13.993235674808
6	3778	147	13.917311959318
6	3828	148	13.942867385286
6	3879	149	13.980095429546
6	3930	150	13.97857070602
6	3981	151	13.959757562766
6	4033	152	13.952024067997
6	4085	153	13.876320435193
6	4138	154	13.972333787882
6	4191	155	13.970673537734
6	4244	156	13.963069021048
6	4297	157	13.931264800541
6	4351	158	13.897907732588
6	4405	159	13.902711392778
6	4459	160	13.999029034502
6	4514	161	13.933725612797
6	4569	162	13.872506030898
6	4624	163	13.928373940925
6	4681	164	13.94527090376
6	4737	165	13.917837886934
6	4793	166	13.935613606579
6	4850	167	13.899269058036
6	4907	168	13.951878523156
6	4964	169	13.949036541763
6	5022	170	13.898167229365
6	5080	171	13.910736216437
6	5138	172	13.927789604696
6	5197	173	13.886247167371
6	5256	174	13.946384775518
6	5315	175	13.92446657663
6	5375	176	13.99466372533
6	5435	177	13.925170157938
6	5495	178	13.988803920329
6	5556	179	13.956101579252
6	5617	180	13.929496678174
6	5678	181	13.878089943773
6	5740	182	13.930902947583
6	6022	183	13.978870710894
6	6306	184	13.942439569917
6	6815	185	13.916482416282
6	7544	186	13.913281143934
6	8497	187	13.872779091697
6	9685	188	13.919343759529
6	11110	189	13.96058773913
6	12541	190	13.939253328196
6	14231	191	13.901529799101
6	15931	192	13.944611792597
6	17879	193	13.938076884435
6	20109	194	13.953860535712
6	22357	195	13.985195662524
6	24861	196	13.946562061303
6	27623	197	13.880639836157
6	30631	198	13.967846674775
6	33882	199	13.891077681468
6	37399	200	13.880399412508
7	6	3	1.9133529532584
7	8	4	1.6952873393311
7	11	5	1.8731499400432
7	14	6	1.8034025248489
7	17	7	2.1224504257739
7	21	8	0.47851136310433
7	25	9	-0.1021267059911
7	29	10	0.086452728209551
7	34	11	0.018149402965792
7	39	12	-0.071146251906175
7	44	13	-0.0001373288989992
7	50	14	-0.013471481548622
7	56	15	0.054527352924923
7	62	16	0.03063477210002
7	69	17	-0.04292928970186
7	76	18	0.0046075960877356
7	83	19	-2.4534173319781
7	91	20	-4.5
7	99	21	0.8935116339894
7	107	22	2.2078255666373
7	116	23	1.8858743545134
7	125	24	1.9903831391631
7	134	25	-0.01549494290026
7	144	26	0.023465231521987
7	154	27	-0.032681161146611
7	164	28	-0.045395484422334
7	175	29	-0.021798015409148
7	186	30	0.019004409639164
7	197	31	0.075803257238585
7	209	32	-0.012492124584968
7	221	33	-0.098418530665803
7	233	34	0.11205169297755
7	246	35	-0.098285225864965
7	259	36	-0.01064266787842
7	272	37	0.091707072502468
7	286	38	-0.096865584938786
7	300	39	0.021350334375166
7	314	40	-0.020129852422979
7	329	41	0.12754734932445
7	344	42	-0.035107081409079
7	359	43	-0.058123281914741
7	375	44	0.015779600332026
7	391	45	0.0066701874043797
7	407	46	0.010192284216172
7	424	47	-0.014827134867664
7	441	48	0.044105808557942
7	458	49	0.018181241797283
7	476	50	-0.051492602068466
7	494	51	-0.0050966037251055
7	512	52	0.018296227052343
7	531	53	-0.065421910630539
7	550	54	-0.011582619075197
7	569	55	0.062391626026946
7	589	56	0.0084849686850799
7	609	57	0.0091393382777465
7	629	58	-0.064856647045817
7	650	59	0.034172988792415
7	671	60	-0.013924592840485
7	692	61	0.011007046941668
7	714	62	0.0067783149331806
7	736	63	0.035106239686721
7	758	64	-0.0023704322986315
7	781	65	-0.016764806038699
7	804	66	-0.060697888985743
7	827	67	0.097903466653079
7	851	68	-0.063582153965253
7	875	69	0.013864825256169
7	899	70	0.049493928106967
7	924	71	-0.048962725931778
7	949	72	-2.5645258864584
7	974	73	-4.5
7	1001	74	-4.5
7	1027	75	-2.3640467916256
7	1053	76	0
7	1080	77	0
7	1107	78	0
7	1134	79	0
7	1162	80	0
7	1190	81	0
7	1218	82	0
7	1247	83	0
7	1276	84	0
7	1305	85	0
7	1335	86	0
7	1365	87	0
7	1395	88	0
7	1426	89	0
7	1457	90	0
7	1488	91	0
7	1520	92	0
7	1552	93	0
7	1584	94	0
7	1617	95	0
7	1650	96	0
7	1683	97	0
7	1717	98	0
7	1751	99	0
7	1785	100	0
7	1820	101	0
7	1855	102	0
7	1890	103	0
7	1927	104	0
7	1963	105	0
7	1999	106	0
7	2036	107	0
7	2073	108	0
7	2110	109	0
7	2148	110	0
7	2186	111	0
7	2224	112	0
7	2263	113	0
7	2302	114	0
7	2341	115	0
7	2381	116	0
7	2421	117	0
7	2461	118	0
7	2502	119	0
7	2543	120	0
7	2584	121	0
7	2626	122	0
7	2668	123	0
7	2711	124	2.2219942613752
7	2754	125	2.1596709975521
7	2797	126	1.8894331387547
7	2840	127	1.9135758166644
7	2884	128	2.0540839163866
7	2928	129	2.1299765114859
7	2972	130	1.593374629586
7	3017	131	-0.047903634139804
7	3062	132	0.030312081675511
7	3107	133	-0.064897888868581
7	3154	134	0.10802168874536
7	3200	135	-0.0497557142633
7	3246	136	-0.055867572841235
7	3293	137	-0.00016320094233357
7	3340	138	0.094910513854119
7	3387	139	-0.0406206157431
7	3435	140	-0.054442796648946
7	3483	141	0.076082908587995
7	3531	142	-0.03947176584974
7	3580	143	0.0093547082087024
7	3629	144	0.032262969331351
7	3678	145	0.037446617058013
7	3728	146	-0.0041418951610108
7	3778	147	-0.075923715489916
7	3828	148	0.025555425968486
7	3879	149	0.037228044259829
7	3930	150	-0.0015247235260905
7	3981	151	-0.018813143253793
7	4033	152	-0.0077334947697807
7	4085	153	-0.075703632803634
7	4138	154	0.096013352689333
7	4191	155	-0.0016602501482694
7	4244	156	-0.0076045166864063
7	4297	157	-0.031804220506457
7	4351	158	-0.033357067953329
7	4405	159	0.0048036601906638
7	4459	160	0.096317641723436
7	4514	161	-0.06530342170503
7	4569	162	-0.061219581898769
7	4624	163	0.055867910026574
7	4681	164	0.016896962835453
7	4737	165	-0.027433016826398
7	4793	166	0.017775719645432
7	4850	167	-0.036344548542983
7	4907	168	0.052609465119895
7	4964	169	-0.002841981393285
7	5022	170	-0.050869312398136
7	5080	171	0.012568987072445
7	5138	172	0.017053388259374
7	5197	173	-0.041542437325697
7	5256	174	0.060137608146761
7	5315	175	-0.021918198887724
7	5375	176	0.070197148700244
7	5435	177	-0.069493567391763
7	5495	178	0.063633762390818
7	5556	179	-0.032702341077384
7	5617	180	-0.026604901077226
7	5678	181	-0.051406734401827
7	5740	182	0.05281300381059
7	6022	183	0.047967763310298
7	6306	184	-0.036431140976493
7	6815	185	-0.025957153635099
7	7544	186	-0.0032012723479422
7	8497	187	-0.040502052237279
7	9685	188	0.046564667832572
7	11110	189	0.041243979600258
7	12541	190	-0.021334410933777
7	14231	191	-0.037723529094364
7	15931	192	0.04308199349558
7	17879	193	-0.0065349081624309
7	20109	194	0.015783651277889
7	22357	195	0.031335126811172
7	24861	196	-0.03863360122079
7	27623	197	-0.065922225145624
7	30631	198	0.087206838617567
7	33882	199	-0.076768993306905
7	37399	200	-0.010678268959746
8	6	3	4.1962556146115
8	8	4	4.6765885426193
8	11	5	5.9822455727343
8	14	6	6.7469998477461
8	17	7	8.9023657158011
8	21	8	3.651678681686
8	25	9	1.6857621818206
8	29	10	2.3276633668785
8	34	11	2.0995306276608
8	39	12	1.7923040941768
8	44	13	2.0305681317735
8	50	14	1.9844951865828
8	56	15	2.2187318873595
8	62	16	2.1416854339172
8	69	17	1.8896148890835
8	76	18	2.0499339673421
8	83	19	0.973
8	91	20	0.973
8	99	21	3.236958348016
8	107	22	7.0694109561587
8	116	23	7.2974163894139
8	125	24	8.7433911631671
8	134	25	1.9831721788576
8	144	26	2.116835898497
8	154	27	1.9244585801898
8	164	28	1.8775583559564
8	175	29	1.9545657515643
8	186	30	2.0931646705581
8	197	31	2.2926746988581
8	209	32	1.993865292131
8	221	33	1.6968396252803
8	233	34	2.4149847823944
8	246	35	1.6983583398882
8	259	36	1.9906198998388
8	272	37	2.3442713071536
8	286	38	1.7018725964397
8	300	39	2.0993392475273
8	314	40	1.9585122345881
8	329	41	2.4691677522194
8	344	42	1.9170802753567
8	359	43	1.8345014514108
8	375	44	2.0838538984303
8	391	45	2.0539801513469
8	407	46	2.0668686152862
8	424	47	1.9813596940184
8	441	48	2.1840996762636
8	458	49	2.0987681125428
8	476	50	1.8592856847688
8	494	51	2.0145873760113
8	512	52	2.0950692067684
8	531	53	1.8080099866508
8	550	54	1.9870007069688
8	569	55	2.2415869227426
8	589	56	2.0614496349521
8	609	57	2.0646020593826
8	629	58	1.8102089718445
8	650	59	2.1453880261281
8	671	60	1.9826536733129
8	692	61	2.0673636130683
8	714	62	2.0538817544551
8	736	63	2.1528270365066
8	758	64	2.0265038417738
8	781	65	1.9764402783138
8	804	66	1.823544423566
8	827	67	2.3663700564531
8	851	68	1.816863137639
8	875	69	2.0780272006119
8	899	70	2.2032702170206
8	924	71	1.8671845150559
8	949	72	0.973
8	974	73	0.973
8	1001	74	0.973
8	1027	75	0.973
8	1053	76	0.973
8	1080	77	0.973
8	1107	78	0.973
8	1134	79	0.973
8	1162	80	0.973
8	1190	81	0.973
8	1218	82	0.973
8	1247	83	0.973
8	1276	84	0.973
8	1305	85	0.973
8	1335	86	0.973
8	1365	87	0.973
8	1395	88	0.973
8	1426	89	0.973
8	1457	90	0.973
8	1488	91	0.973
8	1520	92	0.973
8	1552	93	0.973
8	1584	94	0.973
8	1617	95	0.973
8	1650	96	0.973
8	1683	97	0.973
8	1717	98	0.973
8	1751	99	0.973
8	1785	100	0.973
8	1820	101	0.973
8	1855	102	0.973
8	1890	103	0.973
8	1927	104	0.973
8	1963	105	0.973
8	1999	106	0.973
8	2036	107	0.973
8	2073	108	0.973
8	2110	109	0.973
8	2148	110	0.973
8	2186	111	0.973
8	2224	112	0.973
8	2263	113	0.973
8	2302	114	0.973
8	2341	115	0.973
8	2381	116	0.973
8	2421	117	0.973
8	2461	118	0.973
8	2502	119	0.973
8	2543	120	0.973
8	2584	121	0.973
8	2626	122	0.973
8	2668	123	0.973
8	2711	124	2.4080817491368
8	2754	125	3.6097150181135
8	2797	126	4.2908662920557
8	2840	127	5.3300190940896
8	2884	128	6.7716083595646
8	2928	129	8.2306431470796
8	2972	130	7.3964630212997
8	3017	131	1.8694407969886
8	3062	132	2.1350370330868
8	3107	133	1.8094749832879
8	3154	134	2.4017242150946
8	3200	135	1.8653612770894
8	3246	136	1.8398927616686
8	3293	137	2.0262388539045
8	3340	138	2.3561634646785
8	3387	139	1.8958857007197
8	3435	140	1.8446314622495
8	3483	141	2.2904547203379
8	3531	142	1.8980951179721
8	3580	143	2.0628493417673
8	3629	144	2.1432881440777
8	3678	145	2.1648999396533
8	3728	146	2.0241860811262
8	3778	147	1.7757401158824
8	3828	148	2.1188729782851
8	3879	149	2.1622366330401
8	3930	150	2.0315151224425
8	3981	151	1.9714336212796
8	4033	152	2.0079328186083
8	4085	153	1.7730548201851
8	4138	154	2.3593220789826
8	4191	155	2.030253345154
8	4244	156	2.0094753813518
8	4297	157	1.9250359519245
8	4351	158	1.9166915074702
8	4405	159	2.0450014045122
8	4459	160	2.3637012539276
8	4514	161	1.8127769308894
8	4569	162	1.8211610624293
8	4624	163	2.2190555797815
8	4681	164	2.0900337900892
8	4737	165	1.9384315453697
8	4793	166	2.0919597667029
8	4850	167	1.9068118772232
8	4907	168	2.2108155498546
8	4964	169	2.024077022059
8	5022	170	1.8580592979186
8	5080	171	2.0718610825271
8	5138	172	2.0887033898744
8	5197	173	1.8882060425956
8	5256	174	2.23548730923
8	5315	175	1.9575701132037
8	5375	176	2.2750553785815
8	5435	177	1.7979768262424
8	5495	178	2.2522284908343
8	5556	179	1.9243612234919
8	5617	180	1.9423232811624
8	5678	181	1.8544662206567
8	5740	182	2.2090912431541
8	6022	183	2.198281357827
8	6306	184	1.9105438619255
8	6815	185	1.9432522168217
8	7544	186	2.0192487951073
8	8497	187	1.8904505105334
8	9685	188	2.186804891094
8	11110	189	2.1735770316035
8	12541	190	1.9609618710416
8	14231	191	1.9024022377325
8	15931	192	2.1779625505358
8	17879	193	2.0105604863
8	20109	194	2.0872024215168
8	22357	195	2.142943100938
8	24861	196	1.9035259562631
8	27623	197	1.8061360510748
8	30631	198	2.3291141609331
8	33882	199	1.7707192427041
8	37399	200	1.9909162058012
11	8	4	2414.8767583254
11	11	5	2411.8725636174
11	14	6	2407.2970525089
11	17	7	2402.4626210862
11	21	8	2396.3056860371
11	25	9	2388.8743536096
11	29	10	2380.097228827
11	34	11	2370.3507264333
11	39	12	2360.5878487076
11	44	13	2350.7849318213
11	50	14	2341.2418729237
11	56	15	2334.6305580324
11	62	16	2337.3467480277
11	69	17	2348.0519014368
11	76	18	2358.3998493504
11	83	19	2371.2788021446
11	91	20	2385.0887639745
11	99	21	2398.4985461925
11	107	22	2411.2485283293
11	116	23	2420.6905829484
11	125	24	2427.6440450998
11	134	25	2431.3031180431
11	144	26	2432.9057471878
11	154	27	2434.8184996871
11	164	28	2436.9106889558
11	175	29	2438.5031214217
11	186	30	2439.359314087
11	197	31	2440.3695716034
11	209	32	2441.3815056744
11	221	33	2442.392207776
11	233	34	2443.4019859718
11	246	35	2444.4122552489
11	259	36	2445.4251439738
11	272	37	2446.4367595227
11	286	38	2447.4467230743
11	300	39	2448.4574488286
11	314	40	2449.467800329
11	329	41	2450.4780716181
11	344	42	2449.7461704329
11	359	43	2448.6331060936
11	375	44	2447.5209445587
11	391	45	2446.407523851
11	407	46	2445.2946584851
11	424	47	2444.1824360332
11	441	48	2443.0706190476
11	458	49	2441.9568028547
11	476	50	2440.8451110823
11	494	51	2439.8503503047
11	512	52	2438.9091742415
11	531	53	2438.2310626655
11	550	54	2433.9050446447
11	569	55	2424.21615465
11	589	56	2411.3460908785
11	609	57	2397.4706148925
11	629	58	2383.5587488873
11	650	59	2369.633660475
11	671	60	2355.7048479554
11	692	61	2341.7904321874
11	714	62	2327.8638711022
11	736	63	2313.9188814831
11	758	64	2299.9979078089
11	781	65	2286.0826278217
11	804	66	2272.1469357561
11	827	67	2258.2076214411
11	851	68	2244.3155730069
11	875	69	2230.5273849192
11	899	70	2216.7446519198
11	924	71	2203.5167182724
11	949	72	2190.3178840362
11	974	73	2177.2322881214
11	1001	74	2166.0575198019
11	1027	75	2157.6433227622
11	1053	76	2151.7978679298
11	1080	77	2148.12850579
11	1107	78	2146.1504391922
11	1134	79	2145.2176430746
11	1162	80	2144.8457426265
11	1190	81	2144.7095674569
11	1218	82	2144.6606226763
11	1247	83	2144.6429435182
11	1276	84	2144.6366379777
11	1305	85	2144.6343920679
11	1335	86	2144.6335903119
11	1365	87	2144.6333007435
11	1395	88	2144.6331961942
11	1426	89	2144.6331584929
11	1457	90	2144.6331457664
11	1488	91	2144.6331457664
11	1520	92	2144.6331457664
11	1552	93	2144.6331457664
11	1584	94	2144.6331457664
11	1617	95	2144.6331457664
11	1650	96	2144.6331457664
11	1683	97	2144.6331457664
11	1717	98	2144.6331457664
11	1751	99	2144.6331457664
11	1785	100	2144.6331457664
11	1820	101	2144.6331457664
11	1855	102	2144.6331457664
11	1890	103	2144.6331457664
11	1927	104	2144.6331457664
11	1963	105	2144.6331457664
11	1999	106	2144.6331457664
11	2036	107	2144.6331457664
11	2073	108	2144.6331457664
11	2110	109	2144.6331457664
11	2148	110	2144.6331457664
11	2186	111	2144.6331457664
11	2224	112	2144.6331457664
11	2263	113	2144.6331457664
11	2302	114	2144.6331457664
11	2341	115	2144.6331457664
11	2381	116	2144.6331457664
11	2421	117	2144.6331457664
11	2461	118	2144.6331457664
11	2502	119	2144.6331457664
11	2543	120	2144.6331457664
11	2584	121	2144.6331457664
11	2626	122	2144.6331457664
11	2668	123	2144.6331457664
11	2711	124	2144.2735331957
11	2754	125	2142.4819488054
11	2797	126	2139.1437733911
11	2840	127	2134.907750076
11	2884	128	2127.1494379189
11	2928	129	2120.4386431823
11	2972	130	2112.3740940582
11	3017	131	2103.1480110274
11	3062	132	2093.6299389725
11	3107	133	2084.09545489
11	3154	134	2074.5798363335
11	3200	135	2065.0642647928
11	3246	136	2055.5515816797
11	3293	137	2046.0345663332
11	3340	138	2036.0491629012
11	3387	139	2026.0456549987
11	3435	140	2016.0567219943
11	3483	141	2006.0733355316
11	3531	142	1996.0850957901
11	3580	143	1986.0887009412
11	3629	144	1976.1065010969
11	3678	145	1966.0956376174
11	3728	146	1956.0883026733
11	3778	147	1946.102721339
11	3828	148	1936.1056732843
11	3879	149	1926.3530366175
11	3930	150	1916.6185368866
11	3981	151	1906.8889419071
11	4033	152	1897.1665026398
11	4085	153	1887.4382809714
11	4138	154	1877.7072179955
11	4191	155	1867.9735022015
11	4244	156	1858.2475249238
11	4297	157	1848.5171179966
11	4351	158	1838.7888541779
11	4405	159	1828.8686593759
11	4459	160	1818.7678382428
11	4514	161	1808.6559816556
11	4569	162	1798.6885089152
11	4624	163	1788.7286004601
11	4681	164	1778.7720336015
11	4737	165	1768.8152560804
11	4793	166	1758.863347329
11	4850	167	1748.9227209409
11	4907	168	1738.9921341098
11	4964	169	1729.0396420762
11	5022	170	1719.0919024192
11	5080	171	1709.1413058966
11	5138	172	1699.1956016464
11	5197	173	1689.2384584047
11	5256	174	1679.2886373461
11	5315	175	1669.3454705556
11	5375	176	1659.3961386186
11	5435	177	1649.4273799836
11	5495	178	1639.4905001441
11	5556	179	1629.5261656092
11	5617	180	1619.5645992497
11	5678	181	1609.7630199882
11	5740	182	1599.9681874448
11	6022	183	1590.1822985463
11	6306	184	1580.387474378
11	6815	185	1570.5859664991
11	7544	186	1560.7834474324
11	8497	187	1550.4690440694
11	9685	188	1539.9294290863
11	11110	189	1529.4025482147
11	12541	190	1518.8761525435
11	14231	191	1508.3346210291
11	15931	192	1497.4208682139
11	17879	193	1486.0321445228
11	20109	194	1474.6478158315
11	22357	195	1463.2656483016
11	24861	196	1451.8848583789
11	27623	197	1439.8341428841
11	30631	198	1427.2565689776
11	33882	199	1414.6826889486
11	37399	200	1402.0975237866
12	8	4	1578.4506684253
12	11	5	1579.5537930429
12	14	6	1581.4165868293
12	17	7	1586.3131998433
12	21	8	1592.5493268352
12	25	9	1600.0762428036
12	29	10	1608.9662610246
12	34	11	1618.8381252186
12	39	12	1628.7265753681
12	44	13	1638.6555796713
12	50	14	1648.8046840783
12	56	15	1660.6325348346
12	62	16	1673.301875555
12	69	17	1682.2138796467
12	76	18	1691.5459182626
12	83	19	1695.5099147679
12	91	20	1697.3308411958
12	99	21	1698.6335971011
12	107	22	1699.8391930545
12	116	23	1700.7320023719
12	125	24	1701.2941834759
12	134	25	1708.3978488175
12	144	26	1718.9439634858
12	154	27	1731.5308475178
12	164	28	1745.2985167308
12	175	29	1759.1189484736
12	186	30	1773.033284259
12	197	31	1786.9263172904
12	209	32	1800.8424062571
12	221	33	1814.7415532097
12	233	34	1828.6279946407
12	246	35	1842.5211894047
12	259	36	1856.4504067414
12	272	37	1870.362115399
12	286	38	1884.2511058366
12	300	39	1898.150578063
12	314	40	1912.0449035605
12	329	41	1925.9381259941
12	344	42	1939.8457802581
12	359	43	1953.7382693188
12	375	44	1967.6194902081
12	391	45	1981.5164272105
12	407	46	1995.4064328251
12	424	47	2009.2884140396
12	441	48	2023.165334505
12	458	49	2037.0672076773
12	476	50	2050.942565321
12	494	51	2064.8483957723
12	512	52	2078.754013543
12	531	53	2092.6537938379
12	550	54	2105.6893007364
12	569	55	2115.3934075218
12	589	56	2120.5034639826
12	609	57	2120.5707901428
12	629	58	2120.100904949
12	650	59	2119.6305731572
12	671	60	2119.160115581
12	692	61	2118.6901442679
12	714	62	2118.2197627351
12	736	63	2117.748758764
12	758	64	2117.2785659507
12	781	65	2116.8085654471
12	804	66	2116.3378755087
12	827	67	2115.8670632252
12	851	68	2115.0711128758
12	875	69	2113.1158412341
12	899	70	2111.1613431666
12	924	71	2106.8160774671
12	949	72	2102.339647443
12	974	73	2097.6526627708
12	1001	74	2091.0742531046
12	1027	75	2086.1209481629
12	1053	76	2082.6798211997
12	1080	77	2080.5197256459
12	1107	78	2079.3552690716
12	1134	79	2078.806146726
12	1162	80	2078.5872148043
12	1190	81	2078.5070506316
12	1218	82	2078.4782376122
12	1247	83	2078.4678301709
12	1276	84	2078.4641181994
12	1305	85	2078.4627960678
12	1335	86	2078.4623240866
12	1365	87	2078.4621536219
12	1395	88	2078.4620920755
12	1426	89	2078.4620698811
12	1457	90	2078.4620623896
12	1488	91	2078.4620623896
12	1520	92	2078.4620623896
12	1552	93	2078.4620623896
12	1584	94	2078.4620623896
12	1617	95	2078.4620623896
12	1650	96	2078.4620623896
12	1683	97	2078.4620623896
12	1717	98	2078.4620623896
12	1751	99	2078.4620623896
12	1785	100	2078.4620623896
12	1820	101	2078.4620623896
12	1855	102	2078.4620623896
12	1890	103	2078.4620623896
12	1927	104	2078.4620623896
12	1963	105	2078.4620623896
12	1999	106	2078.4620623896
12	2036	107	2078.4620623896
12	2073	108	2078.4620623896
12	2110	109	2078.4620623896
12	2148	110	2078.4620623896
12	2186	111	2078.4620623896
12	2224	112	2078.4620623896
12	2263	113	2078.4620623896
12	2302	114	2078.4620623896
12	2341	115	2078.4620623896
12	2381	116	2078.4620623896
12	2421	117	2078.4620623896
12	2461	118	2078.4620623896
12	2502	119	2078.4620623896
12	2543	120	2078.4620623896
12	2584	121	2078.4620623896
12	2626	122	2078.4620623896
12	2668	123	2078.4620623896
12	2711	124	2078.2503641471
12	2754	125	2077.1956867045
12	2797	126	2075.0026399465
12	2840	127	2070.9093952533
12	2884	128	2067.4509590482
12	2928	129	2060.2879281444
12	2972	130	2051.67991421
12	3017	131	2041.8320913417
12	3062	132	2031.6726024961
12	3107	133	2021.4955956256
12	3154	134	2011.3387256181
12	3200	135	2001.181905794
12	3246	136	1991.0281690462
12	3293	137	1980.8698081197
12	3340	138	1971.1275830893
12	3387	139	1961.4034622405
12	3435	140	1951.6935092295
12	3483	141	1941.9889478516
12	3531	142	1932.2796687409
12	3580	143	1922.5624622861
12	3629	144	1912.8590543857
12	3678	145	1903.1277833935
12	3728	146	1893.3999423888
12	3778	147	1883.6932474393
12	3828	148	1873.9754060218
12	3879	149	1864.0198620884
12	3930	150	1854.0446953345
12	3981	151	1844.0745545933
12	4033	152	1834.1117464751
12	4085	153	1824.1430129977
12	4138	154	1814.1713679666
12	4191	155	1804.1970045306
12	4244	156	1794.2305709319
12	4297	157	1784.2595981685
12	4351	158	1774.2908214992
12	4405	159	1764.5305910306
12	4459	160	1754.9392411392
12	4514	161	1745.3374124058
12	4569	162	1735.6226016367
12	4624	163	1725.8617250575
12	4681	164	1716.104123299
12	4737	165	1706.3463150878
12	4793	166	1696.5932783522
12	4850	167	1686.8512985203
12	4907	168	1677.1191576226
12	4964	169	1667.3655492608
12	5022	170	1657.6165983072
12	5080	171	1647.8648475772
12	5138	172	1638.1178913563
12	5197	173	1628.359724733
12	5256	174	1618.6087339707
12	5315	175	1608.8642645031
12	5375	176	1599.1137530878
12	5435	177	1589.3442031853
12	5495	178	1579.605895034
12	5556	179	1569.8406808227
12	5617	180	1560.0781794703
12	5678	181	1550.3213544441
12	5740	182	1540.4339561053
12	6022	183	1530.555585932
12	6306	184	1520.6681960477
12	6815	185	1510.7740592873
12	7544	186	1500.8789017834
12	8497	187	1491.5686065638
12	9685	188	1482.4528539395
12	11110	189	1473.3481150959
12	12541	190	1464.2437959034
12	14231	191	1455.1263856646
12	15931	192	1446.5030821236
12	17879	193	1438.4827095335
12	20109	194	1430.4654320693
12	22357	195	1422.449676577
12	24861	196	1414.4348912481
12	27623	197	1407.6011645319
12	30631	198	1401.6713453745
12	33882	199	1395.7432677308
12	37399	200	1389.8098696023
13	11	5	4.0332649588119
13	14	6	5.8265110515686
13	17	7	7.7852127750962
13	21	8	9.5658873894228
13	25	9	11.450149483434
13	29	10	13.391487500134
13	34	11	13.949883621705
13	39	12	13.87602620427
13	44	13	13.885232782268
13	50	14	13.987373048679
13	56	15	13.890608048609
13	62	16	13.887004709987
13	69	17	13.926980708602
13	76	18	13.89086526999
13	83	19	13.965056618985
13	91	20	13.946692067499
13	99	21	13.097137451398
13	107	22	11.939132677032
13	116	23	7.4783001788439
13	125	24	7.8592269216425
13	134	25	9.5749213322898
13	144	26	11.610942506126
13	154	27	13.581243869506
13	164	28	13.973211987913
13	175	29	13.918392209036
13	186	30	13.928662607018
13	197	31	13.985277111761
13	209	32	13.95532245066
13	221	33	13.938708755139
13	233	34	13.908545650935
13	246	35	13.927478809105
13	259	36	13.897819017794
13	272	37	13.989504252097
13	286	38	13.94374062394
13	300	39	13.903882643976
13	314	40	13.969130632835
13	329	41	13.884234787642
13	344	42	13.881978327318
13	359	43	13.927070145076
13	375	44	13.922745489741
13	391	45	13.95273740395
13	407	46	13.968270483359
13	424	47	13.918685564972
13	441	48	13.921468284922
13	458	49	13.897015957548
13	476	50	13.964752228069
13	494	51	13.91147568828
13	512	52	13.974545761354
13	531	53	13.965476403411
13	550	54	13.989670229855
13	569	55	13.951804798429
13	589	56	13.892850009208
13	609	57	13.958218119799
13	629	58	13.933717581006
13	650	59	13.982012811573
13	671	60	13.954506225567
13	692	61	13.954468280503
13	714	62	13.914126337939
13	736	63	13.998578815588
13	758	64	13.932968401979
13	781	65	13.954534002345
13	804	66	13.998651232829
13	827	67	13.999179182528
13	851	68	13.886099785112
13	875	69	13.881868150404
13	899	70	13.887636745651
13	924	71	13.978686858166
13	949	72	13.970344127666
13	974	73	13.925369204739
13	1001	74	11.503028205973
13	1027	75	8.3084939661969
13	1053	76	5.5757626568646
13	1080	77	3.3211618849162
13	1107	78	1.6266335353547
13	1134	79	0.70715133051593
13	1162	80	0.26232084274652
13	1190	81	0.09568805664727
13	1218	82	0.033835632228035
13	1247	83	0.012538818862259
13	1276	84	0.0044949869302171
13	1305	85	0.0015515939487704
13	1335	86	0.00056220080715219
13	1365	87	0.00020206205078003
13	1395	88	7.377202567928e-05
13	1426	89	2.5992050168431e-05
13	1457	90	0
13	1488	91	0
13	1520	92	0
13	1552	93	0
13	1584	94	0
13	1617	95	0
13	1650	96	0
13	1683	97	0
13	1717	98	0
13	1751	99	0
13	1785	100	0
13	1820	101	0
13	1855	102	0
13	1890	103	0
13	1927	104	0
13	1963	105	0
13	1999	106	0
13	2036	107	0
13	2073	108	0
13	2110	109	0
13	2148	110	0
13	2186	111	0
13	2224	112	0
13	2263	113	0
13	2302	114	0
13	2341	115	0
13	2381	116	0
13	2421	117	0
13	2461	118	0
13	2502	119	0
13	2543	120	0
13	2584	121	0
13	2626	122	0
13	2668	123	0
13	2711	124	1.0454558987028
13	2754	125	2.9868171353696
13	2797	126	4.808853949494
13	2840	127	6.8169594475553
13	2884	128	8.7688218932254
13	2928	129	10.599189001744
13	2972	130	12.630716309655
13	3017	131	13.911355651631
13	3062	132	13.959096302334
13	3107	133	13.985669557508
13	3154	134	13.912786148109
13	3200	135	13.880683887878
13	3246	136	13.921652116431
13	3293	137	13.904044170342
13	3340	138	13.928399279253
13	3387	139	13.947232982973
13	3435	140	13.957098587838
13	3483	141	13.872669367229
13	3531	142	13.988834063003
13	3580	143	13.962365872057
13	3629	144	13.978590016267
13	3678	145	13.996544766314
13	3728	146	13.909791962707
13	3778	147	13.955426083545
13	3828	148	13.916719595476
13	3879	149	13.96472714375
13	3930	150	13.96898798909
13	3981	151	13.902139999291
13	4033	152	13.980534003156
13	4085	153	13.976162572829
13	4138	154	13.902045026864
13	4191	155	13.998268041729
13	4244	156	13.981719435903
13	4297	157	13.904254397955
13	4351	158	13.91068194794
13	4405	159	13.901592570813
13	4459	160	13.871256113877
13	4514	161	13.9870051032
13	4569	162	13.963580676371
13	4624	163	13.94083829636
13	4681	164	13.980116114989
13	4737	165	13.977826093403
13	4793	166	13.954251742228
13	4850	167	13.894492452065
13	4907	168	13.893317757975
13	4964	169	13.907786323659
13	5022	170	13.910502062014
13	5080	171	13.881678228341
13	5138	172	13.899310339873
13	5197	173	13.872349197764
13	5256	174	13.895146320874
13	5315	175	13.975084472168
13	5375	176	13.915615806044
13	5435	177	13.983601140513
13	5495	178	13.901822753502
13	5556	179	13.971918848483
13	5617	180	13.912339184245
13	5678	181	13.972755345376
13	5740	182	13.878797757998
13	6022	183	13.972784537242
13	6306	184	13.890386846401
13	6815	185	13.976720529723
13	7544	186	13.881957506698
13	8497	187	13.91544357023
13	9685	188	13.995900200249
13	11110	189	13.934949800337
13	12541	190	13.977231836691
13	14231	191	13.908700234552
13	15931	192	13.884359111569
13	17879	193	13.960923778582
13	20109	194	13.980973287276
13	22357	195	13.990153137404
13	24861	196	13.998212221907
13	27623	197	13.951556153179
13	30631	198	13.963887268738
13	33882	199	13.900766122951
13	37399	200	13.916043556912
14	14	6	1.7932460927567
14	17	7	1.9587017235276
14	21	8	1.7806746143266
14	25	9	1.8842620940111
14	29	10	1.9413380167005
14	34	11	0.5583961215709
14	39	12	-0.073857417434921
14	44	13	0.0092065779981212
14	50	14	0.10214026641101
14	56	15	-0.096765000070445
14	62	16	-0.0036033386224883
14	69	17	0.039975998615846
14	76	18	-0.036115438612178
14	83	19	0.074191348995083
14	91	20	-0.018364551486448
14	99	21	-0.84955461610103
14	107	22	-1.1580047743662
14	116	23	-4.4608324981877
14	125	24	0.38092674279862
14	134	25	1.7156944106473
14	144	26	2.0360211738362
14	154	27	1.9703013633797
14	164	28	0.39196811840698
14	175	29	-0.054819778876846
14	186	30	0.010270397982096
14	197	31	0.056614504742901
14	209	32	-0.029954661100637
14	221	33	-0.016613695521373
14	233	34	-0.030163104203529
14	246	35	0.018933158169965
14	259	36	-0.029659791311714
14	272	37	0.091685234303586
14	286	38	-0.045763628156855
14	300	39	-0.039857979963999
14	314	40	0.065247988859191
14	329	41	-0.08489584519295
14	344	42	-0.0022564603248618
14	359	43	0.045091817758511
14	375	44	-0.0043246553349299
14	391	45	0.029991914208512
14	407	46	0.015533079409506
14	424	47	-0.0495849183877
14	441	48	0.0027827199501917
14	458	49	-0.024452327373437
14	476	50	0.067736270520836
14	494	51	-0.053276539789513
14	512	52	0.063070073074195
14	531	53	-0.0090693579427903
14	550	54	0.024193826443517
14	569	55	-0.037865431425162
14	589	56	-0.058954789221753
14	609	57	0.065368110591081
14	629	58	-0.024500538792926
14	650	59	0.048295230567454
14	671	60	-0.027506586005911
14	692	61	-3.7945064249811e-05
14	714	62	-0.040341942564119
14	736	63	0.08445247764932
14	758	64	-0.065610413609539
14	781	65	0.021565600365866
14	804	66	0.044117230484263
14	827	67	0.0005279496987356
14	851	68	-0.11307939741528
14	875	69	-0.0042316347081215
14	899	70	0.0057685952470639
14	924	71	0.091050112515221
14	949	72	-0.0083427305007344
14	974	73	-0.044974922926631
14	1001	74	-2.4223409987658
14	1027	75	-3.1945342397763
14	1053	76	-2.7327313093324
14	1080	77	-2.2546007719484
14	1107	78	-1.6945283495614
14	1134	79	-0.91948220483881
14	1162	80	-0.44483048776941
14	1190	81	-0.16663278609925
14	1218	82	-0.061852424419235
14	1247	83	-0.021296813365776
14	1276	84	-0.0080438319320418
14	1305	85	-0.0029433929814467
14	1335	86	-0.0009893931416182
14	1365	87	-0.00036013875637216
14	1395	88	-0.00012829002510075
14	1426	89	-4.7779975510849e-05
14	1457	90	-2.5992050168431e-05
14	1488	91	0
14	1520	92	0
14	1552	93	0
14	1584	94	0
14	1617	95	0
14	1650	96	0
14	1683	97	0
14	1717	98	0
14	1751	99	0
14	1785	100	0
14	1820	101	0
14	1855	102	0
14	1890	103	0
14	1927	104	0
14	1963	105	0
14	1999	106	0
14	2036	107	0
14	2073	108	0
14	2110	109	0
14	2148	110	0
14	2186	111	0
14	2224	112	0
14	2263	113	0
14	2302	114	0
14	2341	115	0
14	2381	116	0
14	2421	117	0
14	2461	118	0
14	2502	119	0
14	2543	120	0
14	2584	121	0
14	2626	122	0
14	2668	123	0
14	2711	124	1.0454558987028
14	2754	125	1.9413612366669
14	2797	126	1.8220368141244
14	2840	127	2.0081054980612
14	2884	128	1.9518624456701
14	2928	129	1.8303671085183
14	2972	130	2.0315273079113
14	3017	131	1.2806393419761
14	3062	132	0.047740650703199
14	3107	133	0.026573255173863
14	3154	134	-0.072883409399074
14	3200	135	-0.03210226023104
14	3246	136	0.040968228552956
14	3293	137	-0.017607946088537
14	3340	138	0.024355108910239
14	3387	139	0.018833703720011
14	3435	140	0.0098656048648991
14	3483	141	-0.084429220608435
14	3531	142	0.1161646957742
14	3580	143	-0.026468190946616
14	3629	144	0.016224144210573
14	3678	145	0.017954750047066
14	3728	146	-0.086752803607379
14	3778	147	0.045634120837786
14	3828	148	-0.038706488069147
14	3879	149	0.048007548274473
14	3930	150	0.0042608453403226
14	3981	151	-0.066847989798989
14	4033	152	0.078394003864377
14	4085	153	-0.0043714303267191
14	4138	154	-0.074117545965127
14	4191	155	0.096223014865537
14	4244	156	-0.016548605826683
14	4297	157	-0.077465037947986
14	4351	158	0.0064275499852364
14	4405	159	-0.0090893771266565
14	4459	160	-0.030336456936784
14	4514	161	0.11574898932362
14	4569	162	-0.023424426829443
14	4624	163	-0.022742380010895
14	4681	164	0.039277818629053
14	4737	165	-0.0022900215862336
14	4793	166	-0.023574351174757
14	4850	167	-0.059759290162473
14	4907	168	-0.0011746940901496
14	4964	169	0.014468565683346
14	5022	170	0.0027157383551817
14	5080	171	-0.028823833672796
14	5138	172	0.017632111532148
14	5197	173	-0.026961142108776
14	5256	174	0.022797123109923
14	5315	175	0.0799381512939
14	5375	176	-0.059468666124157
14	5435	177	0.067985334468538
14	5495	178	-0.081778387010562
14	5556	179	0.070096094980835
14	5617	180	-0.059579664238262
14	5678	181	0.060416161131579
14	5740	182	-0.0939575873781
14	6022	183	0.093986779244151
14	6306	184	-0.082397690841463
14	6815	185	0.086333683321717
14	7544	186	-0.094763023024424
14	8497	187	0.033486063531599
14	9685	188	0.080456630019471
14	11110	189	-0.060950399911963
14	12541	190	0.042282036354299
14	14231	191	-0.068531602139119
14	15931	192	-0.024341122983023
14	17879	193	0.076564667013008
14	20109	194	0.020049508693628
14	22357	195	0.0091798501275484
14	24861	196	0.0080590845039108
14	27623	197	-0.046656068728771
14	30631	198	0.01233111555921
14	33882	199	-0.063121145786718
14	37399	200	0.015277433961165
15	14	6	3.9274001426868
15	17	7	5.2041356246368
15	21	8	5.7574507674447
15	25	9	7.0006276784153
15	29	10	8.2432295261252
15	34	11	3.9110016848773
15	39	12	1.7792042638201
15	44	13	2.0579365757541
15	50	14	2.3818636967155
15	56	15	1.7037407999188
15	62	16	2.0152488537881
15	69	17	2.1655550639215
15	76	18	1.906797412239
15	83	19	2.2849654495652
15	91	20	1.9716653983805
15	99	21	0.973
15	107	22	0.973
15	116	23	0.973
15	125	24	2.2554772362628
15	134	25	5.6120472675651
15	144	26	7.5119842129131
15	154	27	8.4455276517466
15	164	28	3.3560730035355
15	175	29	1.8466200733259
15	186	30	2.0660268329645
15	197	31	2.2281549844786
15	209	32	1.9335288120447
15	221	33	1.9767670407741
15	233	34	1.9283950769156
15	246	35	2.0949799016024
15	259	36	1.9290667558988
15	272	37	2.3468857079218
15	286	38	1.8793040227889
15	300	39	1.8954681876561
15	314	40	2.2553467174174
15	329	41	1.7429567241042
15	344	42	2.0192482635441
15	359	43	2.1827359052182
15	375	44	2.0164367628106
15	391	45	2.1348602115454
15	407	46	2.0878872407227
15	424	47	1.8642059318509
15	441	48	2.0401536442479
15	458	49	1.9464315106901
15	476	50	2.2632042711189
15	494	51	1.851180617826
15	512	52	2.2486511283506
15	531	53	2.0047870143605
15	550	54	2.1193583924862
15	569	55	1.9065956504161
15	589	56	1.8305118457369
15	609	57	2.2544630998412
15	629	58	1.9497933768092
15	650	59	2.199742909699
15	671	60	1.9416842431598
15	692	61	2.0340583936544
15	714	62	1.8947902862501
15	736	63	2.3236156337703
15	758	64	1.8116807487081
15	781	65	2.1067187558746
15	804	66	2.1875465210812
15	827	67	2.0405446651404
15	851	68	1.6487905152147
15	875	69	2.0126291187762
15	899	70	2.0466796925005
15	924	71	2.3433989621326
15	949	72	2.0077208397811
15	974	73	1.8802787050508
15	1001	74	0.973
15	1027	75	0.973
15	1053	76	0.973
15	1080	77	0.973
15	1107	78	0.973
15	1134	79	0.973
15	1162	80	0.973
15	1190	81	0.973
15	1218	82	1.1111278658488
15	1247	83	1.1105405169147
15	1276	84	1.1102081243603
15	1305	85	1.1100737482573
15	1335	86	1.1100269865137
15	1365	87	1.1100097299357
15	1395	88	1.1100035564816
15	1426	89	1.1100012535572
15	1457	90	0.973
15	1488	91	0.973
15	1520	92	0.973
15	1552	93	0.973
15	1584	94	0.973
15	1617	95	0.973
15	1650	96	0.973
15	1683	97	0.973
15	1717	98	0.973
15	1751	99	0.973
15	1785	100	0.973
15	1820	101	0.973
15	1855	102	0.973
15	1890	103	0.973
15	1927	104	0.973
15	1963	105	0.973
15	1999	106	0.973
15	2036	107	0.973
15	2073	108	0.973
15	2110	109	0.973
15	2148	110	0.973
15	2186	111	0.973
15	2224	112	0.973
15	2263	113	0.973
15	2302	114	0.973
15	2341	115	0.973
15	2381	116	0.973
15	2421	117	0.973
15	2461	118	0.973
15	2502	119	0.973
15	2543	120	0.973
15	2584	121	0.973
15	2626	122	0.973
15	2668	123	0.973
15	2711	124	1.4239460569433
15	2754	125	2.6539818843905
15	2797	126	3.4638721705184
15	2840	127	4.7672057470829
15	2884	128	5.7201385576267
15	2928	129	6.4068024188927
15	2972	130	8.0894274787189
15	3017	131	6.3233052864783
15	3062	132	2.1952654366489
15	3107	133	2.1269451191026
15	3154	134	1.7855558300948
15	3200	135	1.9192758908256
15	3246	136	2.1682894028507
15	3293	137	1.9700401564216
15	3340	138	2.1132780923625
15	3387	139	2.0967521261933
15	3435	140	2.0676394119274
15	3483	141	1.7435781492056
15	3531	142	2.4293300508524
15	3580	143	1.945929812323
15	3629	144	2.0913101916029
15	3678	145	2.0990577040159
15	3728	146	1.7388095837429
15	3778	147	2.1877632083839
15	3828	148	1.9005145370032
15	3879	149	2.1968042961102
15	3930	150	2.0500150684712
15	3981	151	1.8048797568188
15	4033	152	2.3009863061562
15	4085	153	2.0216810197987
15	4138	154	1.780515749493
15	4191	155	2.3632863193112
15	4244	156	1.9812120211058
15	4297	157	1.7694840250872
15	4351	158	2.0512663796081
15	4405	159	1.9983405927992
15	4459	160	1.9242939949574
15	4514	161	2.4276901516778
15	4569	162	1.9562892484012
15	4624	163	1.9563851254971
15	4681	164	2.1691450530814
15	4737	165	2.0288611293971
15	4793	166	1.9548839267273
15	4850	167	1.8279616767825
15	4907	168	2.0240172755128
15	4964	169	2.0779186428145
15	5022	170	2.0388041841175
15	5080	171	1.9303371884883
15	5138	172	2.0876231595316
15	5197	173	1.9356815008423
15	5256	174	2.1044779476447
15	5315	175	2.3055260701722
15	5375	176	1.8307829891951
15	5435	177	2.2662806746104
15	5495	178	1.7548306755801
15	5556	179	2.2720005806138
15	5617	180	1.8301239210578
15	5678	181	2.2395037836745
15	5740	182	1.7122057007679
15	6022	183	2.3525542747309
15	6306	184	1.7518192228661
15	6815	185	2.3272677192516
15	7544	186	1.7097606649494
15	8497	187	2.142502923052
15	9685	188	2.3098084158344
15	11110	189	1.8275014461408
15	12541	190	2.1789421655913
15	14231	191	1.7997986172212
15	15931	192	1.9455908254829
15	17879	193	2.292454104746
15	20109	194	2.1044528007596
15	22357	195	2.0687891702861
15	24861	196	2.0658521856008
15	27623	197	1.8770155318993
15	30631	198	2.0766468886886
15	33882	199	1.8172472771657
15	37399	200	2.0815014160188
18	17	7	2414.8848622198
18	21	8	2412.0691307599
18	25	9	2407.3819784434
18	29	10	2402.4639103656
18	34	11	2396.2016479742
18	39	12	2388.5021761758
18	44	13	2379.5347220144
18	50	14	2369.7521497252
18	56	15	2359.9648396304
18	62	16	2350.1637192596
18	69	17	2340.717056727
18	76	18	2334.4889366638
18	83	19	2338.0188398167
18	91	20	2348.6970945761
18	99	21	2359.0578910074
18	107	22	2372.1753142256
18	116	23	2385.9847009928
18	125	24	2399.0560799135
18	134	25	2411.469456295
18	144	26	2420.8240344936
18	154	27	2428.2511095385
18	164	28	2431.5096723901
18	175	29	2433.2168502312
18	186	30	2435.2011956087
18	197	31	2437.29147981
18	209	32	2438.672857787
18	221	33	2439.5458305131
18	233	34	2440.5569901068
18	246	35	2441.5662171456
18	259	36	2442.5764760413
18	272	37	2443.5864360537
18	286	38	2444.5969193554
18	300	39	2445.6077267987
18	314	40	2446.6171177449
[...]
404	12541	190	1695.0952993594
404	14231	191	1696.4712471422
404	15931	192	1697.5744966213
404	17879	193	1698.4666598802
404	20109	194	1699.3402099321
404	22357	195	1700.0784419151
404	24861	196	1700.8401520289
404	27623	197	1701.8111501895
404	30631	198	1710.6633912502
404	33882	199	1721.9394723447
404	37399	200	1734.063651449
405	5197	173	4.1722982974219
405	5256	174	6.050894032536
405	5315	175	8.0941174606475
405	5375	176	9.9043262539114
405	5435	177	11.739932488888
405	5495	178	12.063107383124
405	5556	179	11.451604581323
405	5617	180	10.807792567365
405	5678	181	10.456727610217
405	5740	182	10.177739571168
405	6022	183	10.027778008407
405	6306	184	9.8660203747192
405	6815	185	9.7325289176456
405	7544	186	9.6895184191502
405	8497	187	9.5708557140312
405	9685	188	9.5956894040654
405	11110	189	9.4541393154406
405	12541	190	9.5219343935392
405	14231	191	9.4845061893479
405	15931	192	9.4308404477271
405	17879	193	9.5349710994417
405	20109	194	8.513128069389
405	22357	195	8.2050404684125
405	24861	196	6.7199954533496
405	27623	197	8.4244473397349
405	30631	198	10.376423691058
405	33882	199	12.306605101019
405	37399	200	12.205529171198
406	5256	174	1.8785957351141
406	5315	175	2.0432234281115
406	5375	176	1.8102087932639
406	5435	177	1.835606234977
406	5495	178	0.32317489423551
406	5556	179	-0.61150280180069
406	5617	180	-0.643812013958
406	5678	181	-0.35106495714859
406	5740	182	-0.27898803904832
406	6022	183	-0.14996156276111
406	6306	184	-0.16175763368804
406	6815	185	-0.13349145707354
406	7544	186	-0.043010498495448
406	8497	187	-0.11866270511896
406	9685	188	0.024833690034201
406	11110	189	-0.14155008862477
406	12541	190	0.067795078098566
406	14231	191	-0.037428204191331
406	15931	192	-0.053665741620767
406	17879	193	0.10413065171455
406	20109	194	-1.0218430300526
406	22357	195	-0.30808760097649
406	24861	196	-1.4850450150629
406	27623	197	1.7044518863852
406	30631	198	1.9519763513235
406	33882	199	1.9301814099611
406	37399	200	-0.10107592982133
407	5256	174	4.1618523283488
407	5315	175	5.5351270590395
407	5375	176	5.9984019279033
407	5435	177	7.0193339422111
407	5495	178	2.7936236636263
407	5556	179	0.973
407	5617	180	0.973
407	5678	181	0.973
407	5740	182	0.973
407	6022	183	1.3244795779926
407	6306	184	1.2900392714646
407	6815	185	1.3515504879559
407	7544	186	1.561024062663
407	8497	187	1.3789823116108
407	9685	188	1.7119463571957
407	11110	189	1.3216150467812
407	12541	190	1.8046665478142
407	14231	191	1.5607969115149
407	15931	192	1.5204566136091
407	17879	193	1.8893329982686
407	20109	194	0.973
407	22357	195	0.973
407	24861	196	0.973
407	27623	197	5.032162829505
407	30631	198	6.5951098651432
407	33882	199	7.6005617997539
407	37399	200	1.5694507723734
410	5315	175	2414.8887947192
410	5375	176	2411.839309744
410	5435	177	2407.1483131133
410	5495	178	2402.1055246805
410	5556	179	2395.7036317975
410	5617	180	2387.9536180414
410	5678	181	2378.9356486216
410	5740	182	2369.7263681659
410	6022	183	2360.5372305254
410	6306	184	2351.4839329404
410	6815	185	2342.9731922124
410	7544	186	2335.9011286141
410	8497	187	2333.8668947089
410	9685	188	2339.2133343287
410	11110	189	2347.1266310998
410	12541	190	2354.6101810113
410	14231	191	2362.2337839626
410	15931	192	2371.9220789619
410	17879	193	2381.5331480468
410	20109	194	2391.0495093261
410	22357	195	2399.4641958358
410	24861	196	2407.9768118039
410	27623	197	2415.6391657201
410	30631	198	2423.1758041829
410	33882	199	2430.2576090321
410	37399	200	2431.9033756366
411	5315	175	1578.4462487241
411	5375	176	1579.5660036923
411	5435	177	1581.567239346
411	5495	178	1586.6748893065
411	5556	179	1593.1591248373
411	5617	180	1601.0088210888
411	5678	181	1610.1427817466
411	5740	182	1619.4705141289
411	6022	183	1628.7778446134
411	6306	184	1637.9475878356
411	6815	185	1646.5883259233
411	7544	186	1655.6416680394
411	8497	187	1666.3156582909
411	9685	188	1674.8092562454
411	11110	189	1681.3794476818
411	12541	190	1688.128300434
411	14231	191	1694.1579702115
411	15931	192	1695.6060643354
411	17879	193	1696.907643551
411	20109	194	1697.9292409215
411	22357	195	1698.7249057228
411	24861	196	1699.5298304092
411	27623	197	1700.2543571405
411	30631	198	1700.929400688
411	33882	199	1702.9323976086
411	37399	200	1712.3478489984
412	5375	176	4.1406812462363
412	5435	177	6.0654450932554
412	5495	178	8.1474102431548
412	5556	179	9.9105920719601
412	5617	180	11.990486721428
412	5678	181	13.100831135974
412	5740	182	13.077337078374
412	6022	183	13.110146855266
412	6306	184	12.647587796033
412	6815	185	11.861903611965
412	7544	186	11.251897054644
412	8497	187	10.762691580144
412	9685	188	10.395253332004
412	11110	189	10.160463306642
412	12541	190	9.9540118201559
412	14231	191	9.8153674444805
412	15931	192	9.8322627851496
412	17879	193	9.6675917660903
412	20109	194	9.1860302827041
412	22357	195	8.538748745271
412	24861	196	7.8361588239862
412	27623	197	8.2769016329682
412	30631	198	6.4128719780114
412	33882	199	8.5128838561251
412	37399	200	10.437862810289
413	5435	177	1.9247638470191
413	5495	178	2.0819651498995
413	5556	179	1.7631818288052
413	5617	180	2.0798946494679
413	5678	181	1.1103444145459
413	5740	182	-0.023494057599454
413	6022	183	0.032809776891954
413	6306	184	-0.46255905923375
413	6815	185	-0.78568418406799
413	7544	186	-0.6100065573202
413	8497	187	-0.48920547450007
413	9685	188	-0.3674382481402
413	11110	189	-0.23479002536233
413	12541	190	-0.20645148648593
413	14231	191	-0.13864437567543
413	15931	192	0.016895340669127
413	17879	193	-0.16467101905931
413	20109	194	-0.48156148338618
413	22357	195	-0.64728153743317
413	24861	196	-0.70258992128472
413	27623	197	0.440742808982
413	30631	198	-1.8640296549568
413	33882	199	2.1000118781137
413	37399	200	1.9249789541634
414	5435	177	4.2367774106375
414	5495	178	5.6409845367817
414	5556	179	5.889286488747
414	5617	180	7.857959183656
414	5678	181	5.455390510904
414	5740	182	1.8734061273251
414	6022	183	2.0542565448375
414	6306	184	0.973
414	6815	185	0.973
414	7544	186	0.973
414	8497	187	0.973
414	9685	188	0.973
414	11110	189	0.973
414	12541	190	0.973
414	14231	191	1.3428854896751
414	15931	192	1.7121509449673
414	17879	193	1.276168789136
414	20109	194	0.973
414	22357	195	0.973
414	24861	196	0.973
414	27623	197	2.4408233658062
414	30631	198	0.973
414	33882	199	5.8860469519308
414	37399	200	6.5609078198076
417	5495	178	2414.8411606834
417	5556	179	2411.8212945821
417	5617	180	2407.2340216642
417	5678	181	2402.4078865714
417	5740	182	2396.1670496335
417	6022	183	2388.4829322497
417	6306	184	2379.706800545
417	6815	185	2370.8227059451
417	7544	186	2361.9707496609
417	8497	187	2353.1122649581
417	9685	188	2344.2440478104
417	11110	189	2336.3270312872
417	12541	190	2333.8656889133
417	14231	191	2341.5537264398
417	15931	192	2351.0957992487
417	17879	193	2360.1357969744
417	20109	194	2371.1998982439
417	22357	195	2381.4100486664
417	24861	196	2391.22411761
417	27623	197	2400.0390379536
417	30631	198	2408.6151909702
417	33882	199	2416.695666706
417	37399	200	2424.0129334686
418	5495	178	1578.4637396941
418	5556	179	1579.5726187658
418	5617	180	1581.4804283911
418	5678	181	1586.3686383655
418	5740	182	1592.6897464124
418	6022	183	1600.4726987174
418	6306	184	1609.3617110867
418	6815	185	1618.3600749951
418	7544	186	1627.3258872181
418	8497	187	1636.2983118296
418	9685	188	1645.2805940667
418	11110	189	1655.0964463288
418	12541	190	1667.2697982499
418	14231	191	1676.6992636202
418	15931	192	1684.9589429349
418	17879	193	1693.1114393109
418	20109	194	1695.4981211266
418	22357	195	1696.8929919777
418	24861	196	1697.9457513001
418	27623	197	1698.779260884
418	30631	198	1699.5901934225
418	33882	199	1700.3542563636
418	37399	200	1700.9778758809
419	5556	179	4.0301020879068
419	5617	180	5.7866659510231
419	5678	181	7.8106567098528
419	5740	182	9.7852737790208
419	6022	183	11.771192707108
419	6306	184	12.646955651697
419	6815	185	12.691492472105
419	7544	186	12.65436932687
419	8497	187	12.633675903024
419	9685	188	12.599634996388
419	11110	189	12.659472650269
419	12541	190	12.658417382807
419	14231	191	12.63769881008
419	15931	192	12.619262327083
419	17879	193	11.837715175372
419	20109	194	11.233216247756
419	22357	195	9.9345041922402
419	24861	196	9.3495239572453
419	27623	197	8.9684797011565
419	30631	198	7.501503034058
419	33882	199	8.5999985581018
419	37399	200	6.5814874873665
420	5617	180	1.7565638631163
420	5678	181	2.0239907588297
420	5740	182	1.974617069168
420	6022	183	1.9859189280868
420	6306	184	0.87576294458965
420	6815	185	0.044536820407956
420	7544	186	-0.037123145235237
420	8497	187	-0.020693423845804
420	9685	188	-0.034040906636511
420	11110	189	0.059837653881406
420	12541	190	-0.0010552674625082
420	14231	191	-0.020718572726473
420	15931	192	-0.01843648299673
420	17879	193	-0.78154715171109
420	20109	194	-0.60449892761642
420	22357	195	-1.2987120555156
420	24861	196	-0.58498023499497
420	27623	197	-0.38104425608877
420	30631	198	-1.4669766670985
420	33882	199	1.0984955240438
420	37399	200	-2.0185110707353
421	5617	180	3.8567292070852
421	5678	181	5.3407005675328
421	5740	182	6.3252391424865
421	6022	183	7.4622837645495
421	6306	184	4.5762074728406
421	6815	185	2.0473074295133
421	7544	186	1.7944271933776
421	8497	187	1.8427210667168
421	9685	188	1.7992172049887
421	11110	189	2.0906751831929
421	12541	190	1.9047974625166
421	14231	191	1.8429964782652
421	15931	192	1.8483247028866
421	17879	193	0.973
421	20109	194	0.973
421	22357	195	0.973
421	24861	196	0.973
421	27623	197	0.973
421	30631	198	0.973
421	33882	199	3.8603634831942
421	37399	200	0.973
424	5678	181	2414.8779380508
424	5740	182	2411.9970329538
424	6022	183	2407.4862191244
424	6306	184	2402.5944783367
424	6815	185	2396.3107487656
424	7544	186	2388.7262865513
424	8497	187	2380.8504155858
424	9685	188	2372.9843149764
424	11110	189	2365.0945059197
424	12541	190	2357.2114851256
424	14231	191	2349.3247325944
424	15931	192	2341.6477208548
424	17879	193	2335.177532454
424	20109	194	2334.0491336513
424	22357	195	2341.3449303098
424	24861	196	2349.8577622982
424	27623	197	2358.1854712832
424	30631	198	2368.3077342936
424	33882	199	2379.4005401043
424	37399	200	2390.5462740177
425	5678	181	1578.4502352364
425	5740	182	1579.5080885524
425	6022	183	1581.2249871083
425	6306	184	1586.1796466131
425	6815	185	1592.5441989889
425	7544	186	1600.2262143353
425	8497	187	1608.2033866011
425	9685	188	1616.1706628418
425	11110	189	1624.1619524732
425	12541	190	1632.1463665301
425	14231	191	1640.1345603233
425	15931	192	1648.2851355597
425	17879	193	1657.3384426096
425	20109	194	1668.4333620165
425	22357	195	1676.5306481887
425	24861	196	1683.8424502034
425	27623	197	1691.3525867518
425	30631	198	1695.0658339569
425	33882	199	1696.6538156131
425	37399	200	1697.8816566626
426	5740	182	3.8568705508995
426	6022	183	5.7107599186359
426	6306	184	7.8633960219004
426	6815	185	9.8373710972068
426	7544	186	11.236298415992
426	8497	187	11.218727136085
426	9685	188	11.165747769568
426	11110	189	11.275574481318
426	12541	190	11.176221124339
426	14231	191	11.209788830762
426	15931	192	11.23493280611
426	17879	193	11.244871398192
426	20109	194	11.147921455172
426	22357	195	11.14770664535
426	24861	196	11.229630027414
426	27623	197	11.168538895028
426	30631	198	11.160851498912
426	33882	199	11.20410871885
426	37399	200	11.150661244951
427	6022	183	1.8538893677364
427	6306	184	2.1526361032645
427	6815	185	1.9739750753064
427	7544	186	1.3989273187849
427	8497	187	-0.017571279907132
427	9685	188	-0.052979366516229
427	11110	189	0.10982671174919
427	12541	190	-0.099353356978391
427	14231	191	0.033567706423346
427	15931	192	0.025143975347746
427	17879	193	0.0099385920818893
427	20109	194	-0.096949943020007
427	22357	195	-0.00021480982191946
427	24861	196	0.081923382063396
427	27623	197	-0.06109113238519
427	30631	198	-0.0076873961160882
427	33882	199	0.043257219938095
427	37399	200	-0.053447473898995
428	6022	183	3.954187267393
428	6306	184	5.6136607088567
428	6815	185	6.3524123290938
428	7544	186	5.5713130043435
428	8497	187	1.7341214897485
428	9685	188	1.6346696674767
428	11110	189	2.0848090125448
428	12541	190	1.5104964706997
428	14231	191	1.8715716279651
428	15931	192	1.8510573306451
428	17879	193	1.8107381632415
428	20109	194	1.5152888775727
428	22357	195	1.7751644837531
428	24861	196	2.0042484083265
428	27623	197	1.6130313624749
428	30631	198	1.7561516530675
428	33882	199	1.8972174891183
428	37399	200	1.6323560080669
431	6306	184	2414.8788141906
431	6815	185	2412.0652779912
431	7544	186	2407.551033954
431	8497	187	2402.8081792406
431	9685	188	2396.7116066761
431	11110	189	2389.3548582763
431	12541	190	2380.744486539
431	14231	191	2371.7330126754
431	15931	192	2362.7249511016
431	17879	193	2353.713147666
431	20109	194	2344.6833110899
431	22357	195	2336.5824422954
431	24861	196	2333.8309977797
431	27623	197	2341.5042295394
431	30631	198	2351.0569959413
431	33882	199	2360.1778278147
431	37399	200	2371.7698126348
432	6306	184	1578.4499135222
432	6815	185	1579.4830293311
432	7544	186	1581.1593386149
432	8497	187	1585.9631970385
432	9685	188	1592.13818515
432	11110	189	1599.5895577734
432	12541	190	1608.3106781319
432	14231	191	1617.4380596867
432	15931	192	1626.5619850615
432	17879	193	1635.6897004275
432	20109	194	1644.8356808797
432	22357	195	1654.7694804864
432	24861	196	1667.0497573456
432	27623	197	1676.659291896
432	30631	198	1684.9239491401
432	33882	199	1693.1493437756
432	37399	200	1695.5833053291
433	6815	185	3.7541588574195
433	7544	186	5.7118946708985
433	8497	187	7.5933595718689
433	9685	188	9.6098677490083
433	11110	189	11.185632338146
433	12541	190	12.828064661029
433	14231	191	12.858428171399
433	15931	192	12.773671595888
433	17879	193	12.883004034611
433	20109	194	12.869395815994
433	22357	195	12.818268577999
433	24861	196	12.806688598868
433	27623	197	12.814241240225
433	30631	198	12.428568390577
433	33882	199	12.193319340593
433	37399	200	11.921261282808
434	7544	186	1.9577358134789
434	8497	187	1.8814649009705
434	9685	188	2.0165081771393
434	11110	189	1.5757645891374
434	12541	190	1.6424323228832
434	14231	191	0.030363510369789
434	15931	192	-0.084756575510838
434	17879	193	0.10933243872365
434	20109	194	-0.013608218617739
434	22357	195	-0.051127237994223
434	24861	196	-0.01157997913193
434	27623	197	0.0075526413577602
434	30631	198	-0.38567284964841
434	33882	199	-0.23524904998366
434	37399	200	-0.27205805778502
435	7544	186	4.0977108093026
435	8497	187	4.9598296968464
435	9685	188	6.3257520636553
435	11110	189	6.0267292681764
435	12541	190	7.0015194515765
435	14231	191	2.0207811610832
435	15931	192	1.657822167393
435	17879	193	2.2684578372911
435	20109	194	1.885514090343
435	22357	195	1.7649741148387
435	24861	196	1.8860904866543
435	27623	197	1.9458632185771
435	30631	198	0.973
435	33882	199	1.174375813081
435	37399	200	0.973
438	8497	187	2414.8585700947
438	9685	188	2411.9969703056
438	11110	189	2407.3590078291
438	12541	190	2402.5038493358
438	14231	191	2396.2110340785
438	15931	192	2388.5356686392
438	17879	193	2379.5098477243
438	20109	194	2370.1418326314
438	22357	195	2360.7787300163
438	24861	196	2351.4193250611
438	27623	197	2342.1844435789
438	30631	198	2334.9812863778
438	33882	199	2335.3851237283
438	37399	200	2345.5761305641
439	8497	187	1578.4573470484
439	9685	188	1579.508111557
439	11110	189	1581.3538346253
439	12541	190	1586.271441306
439	14231	191	1592.6451962292
439	15931	192	1600.4192840196
439	17879	193	1609.5611971607
439	20109	194	1619.0497058611
439	22357	195	1628.533238899
439	24861	196	1638.0130267162
439	27623	197	1647.5980469361
439	30631	198	1658.5203126362
439	33882	199	1671.4201332461
439	37399	200	1679.9811674627
440	9685	188	3.8585680350128
440	11110	189	5.8516531472004
440	12541	190	7.8973758989761
440	14231	191	9.8557514331911
440	15931	192	11.942946414342
440	17879	193	13.281673413053
440	20109	194	13.354737228594
440	22357	195	13.387590942945
440	24861	196	13.339860889638
440	27623	197	13.271152209534
440	30631	198	13.34358413055
440	33882	199	13.36102348745
440	37399	200	13.298880631287
441	11110	189	1.9930851121875
441	12541	190	2.0457227517758
441	14231	191	1.958375534215
441	15931	192	2.0871949811513
441	17879	193	1.3387269987105
441	20109	194	0.073063815541101
441	22357	195	0.032853714351075
441	24861	196	-0.047730053307022
441	27623	197	-0.068708680104464
441	30631	198	0.072431921015959
441	33882	199	0.017439356900287
441	37399	200	-0.062142856162973
442	11110	189	4.2215389405203
442	12541	190	5.4300282473119
442	14231	191	6.3254843183846
442	15931	192	7.8509615055178
442	17879	193	6.2522535986235
442	20109	194	2.2094162023778
442	22357	195	2.0834731771849
442	24861	196	1.8193611538366
442	27623	197	1.7463689745143
442	30631	198	2.2060989357288
442	33882	199	2.0310298725026
442	37399	200	1.7696473701874
445	12541	190	2414.8925589694
445	14231	191	2411.9627857993
445	15931	192	2407.3062772232
445	17879	193	2402.3654572419
445	20109	194	2395.9558072921
445	22357	195	2388.1006089912
445	24861	196	2378.978760769
445	27623	197	2369.4012116214
445	30631	198	2359.8513236765
445	33882	199	2350.290784059
445	37399	200	2341.0180881016
446	12541	190	1578.444866511
446	14231	191	1579.5206639292
446	15931	192	1581.4072434641
446	17879	193	1586.4116134318
446	20109	194	1592.9037058027
446	22357	195	1600.8599395072
446	24861	196	1610.0991150811
446	27623	197	1619.7998529123
446	30631	198	1629.4725737572
446	33882	199	1639.1560832784
446	37399	200	1649.0911634816
447	14231	191	3.9973312404595
447	15931	192	5.9655132869614
447	17879	193	8.0251987055532
447	20109	194	10.022291549822
447	22357	195	12.077283199195
447	24861	196	13.597041808876
447	27623	197	13.66531432328
447	30631	198	13.566644394974
447	33882	199	13.582692384666
447	37399	200	13.596724563934
448	15931	192	1.9681820465019
448	17879	193	2.0596854185918
448	20109	194	1.9970928442688
448	22357	195	2.054991649373
448	24861	196	1.519758609681
448	27623	197	0.068272514403798
448	30631	198	-0.098669928305316
448	33882	199	0.016047989691142
448	37399	200	0.014032179268542
449	15931	192	4.2470211938026
449	17879	193	5.5284636503922
449	20109	194	6.5101960467323
449	22357	195	7.8366535299921
449	24861	196	6.978222049931
449	27623	197	2.2297984887385
449	30631	198	1.6725169632209
449	33882	199	2.0492499954432
449	37399	200	2.0440939392049
452	17879	193	2414.8450449788
452	20109	194	2411.8481639778
452	22357	195	2407.1918824697
452	24861	196	2402.1068140625
452	27623	197	2395.6393894139
452	30631	198	2387.8540473643
452	33882	199	2378.7425860802
452	37399	200	2368.9560980042
453	17879	193	1578.4623134006
453	20109	194	1579.5627524639
453	22357	195	1581.5231095897
453	24861	196	1586.6735833399
453	27623	197	1593.2241935218
453	30631	198	1601.1096724672
453	33882	199	1610.3383275038
453	37399	200	1620.2506916858
454	20109	194	4.0768216341553
454	22357	195	6.1146311434992
454	24861	196	8.1238958659168
454	27623	197	10.07226857951
454	30631	198	11.975930302181
454	33882	199	13.751272715454
454	37399	200	13.880561356815
455	22357	195	2.0378095093439
455	24861	196	2.0092647224176
455	27623	197	1.9483727135928
455	30631	198	1.9036617226712
455	33882	199	1.7753424132732
455	37399	200	0.12928864136057
456	22357	195	4.4290585903548
456	24861	196	5.4852832676338
456	27623	197	6.4197949691156
456	30631	198	7.340737888557
456	33882	199	7.8971625527147
456	37399	200	2.4591516963765
459	24861	196	2414.8708323571
459	27623	197	2412.0068498836
459	30631	198	2407.3947947501
459	33882	199	2402.6063379883
459	37399	200	2396.4215075286
460	24861	196	1578.4528444102
460	27623	197	1579.5044838274
460	30631	198	1581.3175874045
460	33882	199	1586.1676344201
460	37399	200	1592.4320156202
461	27623	197	3.9035555463673
461	30631	198	5.8214058272394
461	33882	199	7.7054297537466
461	37399	200	9.6555590937442
462	30631	198	1.9178502808721
462	33882	199	1.8840239265072
462	37399	200	1.9501293399977
463	30631	198	4.0997140834571
463	33882	199	5.0226217989374
463	37399	200	6.1968733187211
466	33882	199	2414.8713181916
466	37399	200	2411.9594073247
467	33882	199	1578.4526660144
467	37399	200	1579.5219044872
468	37399	200	3.9654431967067

