version 3
run Default-0-20260207-15:38:55-12380
attr configname Default
attr datetime 20260207-15:38:55
attr datetimef 20260207-153855
attr experiment Default
attr inifile omnetpp.ini
attr iterationvars ""
attr iterationvarsd ""
attr iterationvarsf ""
attr measurement ""
attr network RSUExampleScenario
attr processid 12380
attr repetition 0
attr replication #0
attr resultdir results
attr runnumber 0
attr seedset 0
config image-path ../../../../../Downloads/veins-5.3.1/veins-veins-5.3.1/images
config cmdenv-express-mode true
config cmdenv-autoflush true
config cmdenv-status-frequency 1s
config **.cmdenv-log-level info
config image-path ../../images
config network RSUExampleScenario
config debug-on-errors true
config print-undisposed true
config sim-time-limit 200s
config **.scalar-recording true
config **.vector-recording true
config *.playgroundSizeX 2500m
config *.playgroundSizeY 2500m
config *.playgroundSizeZ 50m
config *.annotations.draw true
config *.obstacles.obstacles "xmldoc(\"config.xml\", \"//AnalogueModel[@type='SimpleObstacleShadowing']/obstacles\")"
config *.manager.updateInterval 1s
config *.manager.host "\"localhost\""
config *.manager.port 9999
config *.manager.autoShutdown true
config *.manager.launchConfig "xmldoc(\"erlangen.launchd.xml\")"
config *.manager.trafficLightModuleType "\"org.car2x.veins.nodes.TrafficLight\""
config *.tls[*].mobility.x 0
config *.tls[*].mobility.y 0
config *.tls[*].mobility.z 3
config *.tls[*].applType "\"org.car2x.veins.modules.application.traci.TraCIDemoTrafficLightApp\""
config *.tls[*].logicType "\"org.car2x.veins.modules.world.traci.trafficLight.logics.TraCITrafficLightSimpleLogic\""
config *.rsu[0].mobility.x 2000
config *.rsu[0].mobility.y 2000
config *.rsu[0].mobility.z 3
config *.rsu[*].applType "\"RiderRSU\""
config *.rsu[*].appl.headerLength "80 bit"
config *.rsu[*].appl.sendBeacons false
config *.rsu[*].appl.dataOnSch false
config *.rsu[*].appl.beaconInterval 1s
config *.rsu[*].appl.beaconUserPriority 7
config *.rsu[*].appl.dataUserPriority 5
config *.rsu[*].nic.phy80211p.antennaOffsetZ "0 m"
config *.connectionManager.sendDirect true
config *.connectionManager.maxInterfDist 2600m
config *.connectionManager.drawMaxIntfDist false
config *.**.nic.mac1609_4.useServiceChannel false
config *.**.nic.mac1609_4.txPower 20mW
config *.**.nic.mac1609_4.bitrate 6Mbps
config *.**.nic.phy80211p.minPowerLevel -110dBm
config *.**.nic.phy80211p.useNoiseFloor true
config *.**.nic.phy80211p.noiseFloor -98dBm
config *.**.nic.phy80211p.decider "xmldoc(\"config.xml\")"
config *.**.nic.phy80211p.analogueModels "xmldoc(\"config.xml\")"
config *.**.nic.phy80211p.usePropagationDelay true
config *.**.nic.phy80211p.antenna "xmldoc(\"antenna.xml\", \"/root/Antenna[@id='monopole']\")"
config *.node[*].nic.phy80211p.antennaOffsetY "0 m"
config *.node[*].nic.phy80211p.antennaOffsetZ "1.895 m"
config *.node[*].applType "\"RiderVehicle\""
config *.node[*].appl.headerLength "80 bit"
config *.node[*].appl.sendBeacons false
config *.node[*].appl.dataOnSch false
config *.node[*].appl.beaconInterval 1s
config *.node[*].veinsmobility.x 0
config *.node[*].veinsmobility.y 0
config *.node[*].veinsmobility.z 0
config *.node[*].veinsmobility.setHostSpeed false
config *.node[*0].veinsmobility.accidentCount 1
config *.node[*0].veinsmobility.accidentStart 73s
config *.node[*0].veinsmobility.accidentDuration 50s

vector 0 RSUExampleScenario.rsu[0].nic.phy80211p RadioState ETV
vector 1 RSUExampleScenario.rsu[0].nic.phy80211p RadioChannel ETV
vector 2 RSUExampleScenario.node[0].nic.phy80211p RadioState ETV
vector 3 RSUExampleScenario.node[0].nic.phy80211p RadioChannel ETV
vector 4 RSUExampleScenario.manager posx ETV
vector 5 RSUExampleScenario.manager posy ETV
vector 6 RSUExampleScenario.manager speed ETV
vector 7 RSUExampleScenario.manager acceleration ETV
vector 8 RSUExampleScenario.manager co2emission ETV
vector 9 RSUExampleScenario.node[1].nic.phy80211p RadioState ETV
vector 10 RSUExampleScenario.node[1].nic.phy80211p RadioChannel ETV
vector 11 RSUExampleScenario.manager posx ETV
vector 12 RSUExampleScenario.manager posy ETV
vector 13 RSUExampleScenario.manager speed ETV
vector 14 RSUExampleScenario.manager acceleration ETV
vector 15 RSUExampleScenario.manager co2emission ETV
vector 16 RSUExampleScenario.node[2].nic.phy80211p RadioState ETV
vector 17 RSUExampleScenario.node[2].nic.phy80211p RadioChannel ETV
vector 18 RSUExampleScenario.manager posx ETV
vector 19 RSUExampleScenario.manager posy ETV
vector 20 RSUExampleScenario.manager speed ETV
vector 21 RSUExampleScenario.manager acceleration ETV
vector 22 RSUExampleScenario.manager co2emission ETV
vector 23 RSUExampleScenario.node[3].nic.phy80211p RadioState ETV
vector 24 RSUExampleScenario.node[3].nic.phy80211p RadioChannel ETV
vector 25 RSUExampleScenario.manager posx ETV
vector 26 RSUExampleScenario.manager posy ETV
vector 27 RSUExampleScenario.manager speed ETV
vector 28 RSUExampleScenario.manager acceleration ETV
vector 29 RSUExampleScenario.manager co2emission ETV
vector 30 RSUExampleScenario.node[4].nic.phy80211p RadioState ETV
vector 31 RSUExampleScenario.node[4].nic.phy80211p RadioChannel ETV
vector 32 RSUExampleScenario.manager posx ETV
vector 33 RSUExampleScenario.manager posy ETV
vector 34 RSUExampleScenario.manager speed ETV
vector 35 RSUExampleScenario.manager acceleration ETV
vector 36 RSUExampleScenario.manager co2emission ETV
vector 37 RSUExampleScenario.node[5].nic.phy80211p RadioState ETV
vector 38 RSUExampleScenario.node[5].nic.phy80211p RadioChannel ETV
vector 39 RSUExampleScenario.manager posx ETV
vector 40 RSUExampleScenario.manager posy ETV
vector 41 RSUExampleScenario.manager speed ETV
vector 42 RSUExampleScenario.manager acceleration ETV
vector 43 RSUExampleScenario.manager co2emission ETV
vector 44 RSUExampleScenario.node[6].nic.phy80211p RadioState ETV
vector 45 RSUExampleScenario.node[6].nic.phy80211p RadioChannel ETV
vector 46 RSUExampleScenario.manager posx ETV
vector 47 RSUExampleScenario.manager posy ETV
vector 48 RSUExampleScenario.manager speed ETV
vector 49 RSUExampleScenario.manager acceleration ETV
vector 50 RSUExampleScenario.manager co2emission ETV
vector 51 RSUExampleScenario.node[7].nic.phy80211p RadioState ETV
vector 52 RSUExampleScenario.node[7].nic.phy80211p RadioChannel ETV
vector 53 RSUExampleScenario.manager posx ETV
vector 54 RSUExampleScenario.manager posy ETV
vector 55 RSUExampleScenario.manager speed ETV
vector 56 RSUExampleScenario.manager acceleration ETV
vector 57 RSUExampleScenario.manager co2emission ETV
vector 58 RSUExampleScenario.node[8].nic.phy80211p RadioState ETV
vector 59 RSUExampleScenario.node[8].nic.phy80211p RadioChannel ETV
vector 60 RSUExampleScenario.manager posx ETV
vector 61 RSUExampleScenario.manager posy ETV
vector 62 RSUExampleScenario.manager speed ETV
vector 63 RSUExampleScenario.manager acceleration ETV
vector 64 RSUExampleScenario.manager co2emission ETV
vector 65 RSUExampleScenario.node[9].nic.phy80211p RadioState ETV
vector 66 RSUExampleScenario.node[9].nic.phy80211p RadioChannel ETV
vector 67 RSUExampleScenario.manager posx ETV
vector 68 RSUExampleScenario.manager posy ETV
vector 69 RSUExampleScenario.manager speed ETV
vector 70 RSUExampleScenario.manager acceleration ETV
vector 71 RSUExampleScenario.manager co2emission ETV
vector 72 RSUExampleScenario.node[10].nic.phy80211p RadioState ETV
vector 73 RSUExampleScenario.node[10].nic.phy80211p RadioChannel ETV
vector 74 RSUExampleScenario.manager posx ETV
vector 75 RSUExampleScenario.manager posy ETV
vector 76 RSUExampleScenario.manager speed ETV
vector 77 RSUExampleScenario.manager acceleration ETV
vector 78 RSUExampleScenario.manager co2emission ETV
vector 79 RSUExampleScenario.node[11].nic.phy80211p RadioState ETV
vector 80 RSUExampleScenario.node[11].nic.phy80211p RadioChannel ETV
vector 81 RSUExampleScenario.manager posx ETV
vector 82 RSUExampleScenario.manager posy ETV
vector 83 RSUExampleScenario.manager speed ETV
vector 84 RSUExampleScenario.manager acceleration ETV
vector 85 RSUExampleScenario.manager co2emission ETV
vector 86 RSUExampleScenario.node[12].nic.phy80211p RadioState ETV
vector 87 RSUExampleScenario.node[12].nic.phy80211p RadioChannel ETV
vector 88 RSUExampleScenario.manager posx ETV
vector 89 RSUExampleScenario.manager posy ETV
vector 90 RSUExampleScenario.manager speed ETV
vector 91 RSUExampleScenario.manager acceleration ETV
vector 92 RSUExampleScenario.manager co2emission ETV
vector 93 RSUExampleScenario.node[13].nic.phy80211p RadioState ETV
vector 94 RSUExampleScenario.node[13].nic.phy80211p RadioChannel ETV
vector 95 RSUExampleScenario.manager posx ETV
vector 96 RSUExampleScenario.manager posy ETV
vector 97 RSUExampleScenario.manager speed ETV
vector 98 RSUExampleScenario.manager acceleration ETV
vector 99 RSUExampleScenario.manager co2emission ETV
vector 100 RSUExampleScenario.node[14].nic.phy80211p RadioState ETV
vector 101 RSUExampleScenario.node[14].nic.phy80211p RadioChannel ETV
vector 102 RSUExampleScenario.manager posx ETV
vector 103 RSUExampleScenario.manager posy ETV
vector 104 RSUExampleScenario.manager speed ETV
vector 105 RSUExampleScenario.manager acceleration ETV
vector 106 RSUExampleScenario.manager co2emission ETV
vector 107 RSUExampleScenario.node[15].nic.phy80211p RadioState ETV
vector 108 RSUExampleScenario.node[15].nic.phy80211p RadioChannel ETV
vector 109 RSUExampleScenario.manager posx ETV
vector 110 RSUExampleScenario.manager posy ETV
vector 111 RSUExampleScenario.manager speed ETV
vector 112 RSUExampleScenario.manager acceleration ETV
vector 113 RSUExampleScenario.manager co2emission ETV
vector 114 RSUExampleScenario.node[16].nic.phy80211p RadioState ETV
vector 115 RSUExampleScenario.node[16].nic.phy80211p RadioChannel ETV
vector 116 RSUExampleScenario.manager posx ETV
vector 117 RSUExampleScenario.manager posy ETV
vector 118 RSUExampleScenario.manager speed ETV
vector 119 RSUExampleScenario.manager acceleration ETV
vector 120 RSUExampleScenario.manager co2emission ETV
vector 121 RSUExampleScenario.node[17].nic.phy80211p RadioState ETV
vector 122 RSUExampleScenario.node[17].nic.phy80211p RadioChannel ETV
vector 123 RSUExampleScenario.manager posx ETV
vector 124 RSUExampleScenario.manager posy ETV
vector 125 RSUExampleScenario.manager speed ETV
vector 126 RSUExampleScenario.manager acceleration ETV
vector 127 RSUExampleScenario.manager co2emission ETV
vector 128 RSUExampleScenario.node[18].nic.phy80211p RadioState ETV
vector 129 RSUExampleScenario.node[18].nic.phy80211p RadioChannel ETV
vector 130 RSUExampleScenario.manager posx ETV
vector 131 RSUExampleScenario.manager posy ETV
vector 132 RSUExampleScenario.manager speed ETV
vector 133 RSUExampleScenario.manager acceleration ETV
vector 134 RSUExampleScenario.manager co2emission ETV
vector 135 RSUExampleScenario.node[19].nic.phy80211p RadioState ETV
vector 136 RSUExampleScenario.node[19].nic.phy80211p RadioChannel ETV
vector 137 RSUExampleScenario.manager posx ETV
vector 138 RSUExampleScenario.manager posy ETV
vector 139 RSUExampleScenario.manager speed ETV
vector 140 RSUExampleScenario.manager acceleration ETV
vector 141 RSUExampleScenario.manager co2emission ETV
vector 142 RSUExampleScenario.node[20].nic.phy80211p RadioState ETV
vector 143 RSUExampleScenario.node[20].nic.phy80211p RadioChannel ETV
vector 144 RSUExampleScenario.manager posx ETV
vector 145 RSUExampleScenario.manager posy ETV
vector 146 RSUExampleScenario.manager speed ETV
vector 147 RSUExampleScenario.manager acceleration ETV
vector 148 RSUExampleScenario.manager co2emission ETV
vector 149 RSUExampleScenario.node[21].nic.phy80211p RadioState ETV
vector 150 RSUExampleScenario.node[21].nic.phy80211p RadioChannel ETV
vector 151 RSUExampleScenario.manager posx ETV
vector 152 RSUExampleScenario.manager posy ETV
vector 153 RSUExampleScenario.manager speed ETV
vector 154 RSUExampleScenario.manager acceleration ETV
vector 155 RSUExampleScenario.manager co2emission ETV
vector 156 RSUExampleScenario.node[22].nic.phy80211p RadioState ETV
vector 157 RSUExampleScenario.node[22].nic.phy80211p RadioChannel ETV
vector 158 RSUExampleScenario.manager posx ETV
vector 159 RSUExampleScenario.manager posy ETV
vector 160 RSUExampleScenario.manager speed ETV
vector 161 RSUExampleScenario.manager acceleration ETV
vector 162 RSUExampleScenario.manager co2emission ETV
vector 163 RSUExampleScenario.node[23].nic.phy80211p RadioState ETV
vector 164 RSUExampleScenario.node[23].nic.phy80211p RadioChannel ETV
vector 165 RSUExampleScenario.manager posx ETV
vector 166 RSUExampleScenario.manager posy ETV
vector 167 RSUExampleScenario.manager speed ETV
vector 168 RSUExampleScenario.manager acceleration ETV
vector 169 RSUExampleScenario.manager co2emission ETV
vector 170 RSUExampleScenario.node[24].nic.phy80211p RadioState ETV
vector 171 RSUExampleScenario.node[24].nic.phy80211p RadioChannel ETV
vector 172 RSUExampleScenario.manager posx ETV
vector 173 RSUExampleScenario.manager posy ETV
vector 174 RSUExampleScenario.manager speed ETV
vector 175 RSUExampleScenario.manager acceleration ETV
vector 176 RSUExampleScenario.manager co2emission ETV
vector 177 RSUExampleScenario.node[25].nic.phy80211p RadioState ETV
vector 178 RSUExampleScenario.node[25].nic.phy80211p RadioChannel ETV
vector 179 RSUExampleScenario.manager posx ETV
vector 180 RSUExampleScenario.manager posy ETV
vector 181 RSUExampleScenario.manager speed ETV
vector 182 RSUExampleScenario.manager acceleration ETV
vector 183 RSUExampleScenario.manager co2emission ETV
vector 184 RSUExampleScenario.node[26].nic.phy80211p RadioState ETV
vector 185 RSUExampleScenario.node[26].nic.phy80211p RadioChannel ETV
vector 186 RSUExampleScenario.manager posx ETV
vector 187 RSUExampleScenario.manager posy ETV
vector 188 RSUExampleScenario.manager speed ETV
vector 189 RSUExampleScenario.manager acceleration ETV
vector 190 RSUExampleScenario.manager co2emission ETV
vector 191 RSUExampleScenario.node[27].nic.phy80211p RadioState ETV
vector 192 RSUExampleScenario.node[27].nic.phy80211p RadioChannel ETV
vector 193 RSUExampleScenario.manager posx ETV
vector 194 RSUExampleScenario.manager posy ETV
vector 195 RSUExampleScenario.manager speed ETV
vector 196 RSUExampleScenario.manager acceleration ETV
vector 197 RSUExampleScenario.manager co2emission ETV
vector 198 RSUExampleScenario.node[28].nic.phy80211p RadioState ETV
vector 199 RSUExampleScenario.node[28].nic.phy80211p RadioChannel ETV
vector 200 RSUExampleScenario.manager posx ETV
vector 201 RSUExampleScenario.manager posy ETV
vector 202 RSUExampleScenario.manager speed ETV
vector 203 RSUExampleScenario.manager acceleration ETV
vector 204 RSUExampleScenario.manager co2emission ETV
vector 205 RSUExampleScenario.node[29].nic.phy80211p RadioState ETV
vector 206 RSUExampleScenario.node[29].nic.phy80211p RadioChannel ETV
vector 207 RSUExampleScenario.manager posx ETV
vector 208 RSUExampleScenario.manager posy ETV
vector 209 RSUExampleScenario.manager speed ETV
vector 210 RSUExampleScenario.manager acceleration ETV
vector 211 RSUExampleScenario.manager co2emission ETV
vector 212 RSUExampleScenario.node[30].nic.phy80211p RadioState ETV
vector 213 RSUExampleScenario.node[30].nic.phy80211p RadioChannel ETV
vector 214 RSUExampleScenario.manager posx ETV
vector 215 RSUExampleScenario.manager posy ETV
vector 216 RSUExampleScenario.manager speed ETV
vector 217 RSUExampleScenario.manager acceleration ETV
vector 218 RSUExampleScenario.manager co2emission ETV
vector 219 RSUExampleScenario.node[31].nic.phy80211p RadioState ETV
vector 220 RSUExampleScenario.node[31].nic.phy80211p RadioChannel ETV
vector 221 RSUExampleScenario.manager posx ETV
vector 222 RSUExampleScenario.manager posy ETV
vector 223 RSUExampleScenario.manager speed ETV
vector 224 RSUExampleScenario.manager acceleration ETV
vector 225 RSUExampleScenario.manager co2emission ETV
vector 226 RSUExampleScenario.node[32].nic.phy80211p RadioState ETV
vector 227 RSUExampleScenario.node[32].nic.phy80211p RadioChannel ETV
vector 228 RSUExampleScenario.manager posx ETV
vector 229 RSUExampleScenario.manager posy ETV
vector 230 RSUExampleScenario.manager speed ETV
vector 231 RSUExampleScenario.manager acceleration ETV
vector 232 RSUExampleScenario.manager co2emission ETV
vector 233 RSUExampleScenario.node[33].nic.phy80211p RadioState ETV
vector 234 RSUExampleScenario.node[33].nic.phy80211p RadioChannel ETV
vector 235 RSUExampleScenario.manager posx ETV
vector 236 RSUExampleScenario.manager posy ETV
vector 237 RSUExampleScenario.manager speed ETV
vector 238 RSUExampleScenario.manager acceleration ETV
vector 239 RSUExampleScenario.manager co2emission ETV
vector 240 RSUExampleScenario.node[34].nic.phy80211p RadioState ETV
vector 241 RSUExampleScenario.node[34].nic.phy80211p RadioChannel ETV
vector 242 RSUExampleScenario.manager posx ETV
vector 243 RSUExampleScenario.manager posy ETV
vector 244 RSUExampleScenario.manager speed ETV
vector 245 RSUExampleScenario.manager acceleration ETV
vector 246 RSUExampleScenario.manager co2emission ETV
vector 247 RSUExampleScenario.node[35].nic.phy80211p RadioState ETV
vector 248 RSUExampleScenario.node[35].nic.phy80211p RadioChannel ETV
vector 249 RSUExampleScenario.manager posx ETV
vector 250 RSUExampleScenario.manager posy ETV
vector 251 RSUExampleScenario.manager speed ETV
vector 252 RSUExampleScenario.manager acceleration ETV
vector 253 RSUExampleScenario.manager co2emission ETV
vector 254 RSUExampleScenario.node[36].nic.phy80211p RadioState ETV
vector 255 RSUExampleScenario.node[36].nic.phy80211p RadioChannel ETV
vector 256 RSUExampleScenario.manager posx ETV
vector 257 RSUExampleScenario.manager posy ETV
vector 258 RSUExampleScenario.manager speed ETV
vector 259 RSUExampleScenario.manager acceleration ETV
vector 260 RSUExampleScenario.manager co2emission ETV
vector 261 RSUExampleScenario.node[37].nic.phy80211p RadioState ETV
vector 262 RSUExampleScenario.node[37].nic.phy80211p RadioChannel ETV
vector 263 RSUExampleScenario.manager posx ETV
vector 264 RSUExampleScenario.manager posy ETV
vector 265 RSUExampleScenario.manager speed ETV
vector 266 RSUExampleScenario.manager acceleration ETV
vector 267 RSUExampleScenario.manager co2emission ETV
vector 268 RSUExampleScenario.node[38].nic.phy80211p RadioState ETV
vector 269 RSUExampleScenario.node[38].nic.phy80211p RadioChannel ETV
vector 270 RSUExampleScenario.manager posx ETV
vector 271 RSUExampleScenario.manager posy ETV
vector 272 RSUExampleScenario.manager speed ETV
vector 273 RSUExampleScenario.manager acceleration ETV
vector 274 RSUExampleScenario.manager co2emission ETV
vector 275 RSUExampleScenario.node[39].nic.phy80211p RadioState ETV
vector 276 RSUExampleScenario.node[39].nic.phy80211p RadioChannel ETV
vector 277 RSUExampleScenario.manager posx ETV
vector 278 RSUExampleScenario.manager posy ETV
vector 279 RSUExampleScenario.manager speed ETV
vector 280 RSUExampleScenario.manager acceleration ETV
vector 281 RSUExampleScenario.manager co2emission ETV
vector 282 RSUExampleScenario.node[40].nic.phy80211p RadioState ETV
vector 283 RSUExampleScenario.node[40].nic.phy80211p RadioChannel ETV
vector 284 RSUExampleScenario.manager posx ETV
vector 285 RSUExampleScenario.manager posy ETV
vector 286 RSUExampleScenario.manager speed ETV
vector 287 RSUExampleScenario.manager acceleration ETV
vector 288 RSUExampleScenario.manager co2emission ETV
vector 289 RSUExampleScenario.node[41].nic.phy80211p RadioState ETV
vector 290 RSUExampleScenario.node[41].nic.phy80211p RadioChannel ETV
vector 291 RSUExampleScenario.manager posx ETV
vector 292 RSUExampleScenario.manager posy ETV
vector 293 RSUExampleScenario.manager speed ETV
vector 294 RSUExampleScenario.manager acceleration ETV
vector 295 RSUExampleScenario.manager co2emission ETV
vector 296 RSUExampleScenario.node[42].nic.phy80211p RadioState ETV
vector 297 RSUExampleScenario.node[42].nic.phy80211p RadioChannel ETV
vector 298 RSUExampleScenario.manager posx ETV
vector 299 RSUExampleScenario.manager posy ETV
vector 300 RSUExampleScenario.manager speed ETV
vector 301 RSUExampleScenario.manager acceleration ETV
vector 302 RSUExampleScenario.manager co2emission ETV
vector 303 RSUExampleScenario.node[43].nic.phy80211p RadioState ETV
vector 304 RSUExampleScenario.node[43].nic.phy80211p RadioChannel ETV
vector 305 RSUExampleScenario.manager posx ETV
vector 306 RSUExampleScenario.manager posy ETV
vector 307 RSUExampleScenario.manager speed ETV
vector 308 RSUExampleScenario.manager acceleration ETV
vector 309 RSUExampleScenario.manager co2emission ETV
vector 310 RSUExampleScenario.node[44].nic.phy80211p RadioState ETV
vector 311 RSUExampleScenario.node[44].nic.phy80211p RadioChannel ETV
vector 312 RSUExampleScenario.manager posx ETV
vector 313 RSUExampleScenario.manager posy ETV
vector 314 RSUExampleScenario.manager speed ETV
vector 315 RSUExampleScenario.manager acceleration ETV
vector 316 RSUExampleScenario.manager co2emission ETV
vector 317 RSUExampleScenario.node[45].nic.phy80211p RadioState ETV
vector 318 RSUExampleScenario.node[45].nic.phy80211p RadioChannel ETV
vector 319 RSUExampleScenario.manager posx ETV
vector 320 RSUExampleScenario.manager posy ETV
vector 321 RSUExampleScenario.manager speed ETV
vector 322 RSUExampleScenario.manager acceleration ETV
vector 323 RSUExampleScenario.manager co2emission ETV
vector 324 RSUExampleScenario.node[46].nic.phy80211p RadioState ETV
vector 325 RSUExampleScenario.node[46].nic.phy80211p RadioChannel ETV
vector 326 RSUExampleScenario.manager posx ETV
vector 327 RSUExampleScenario.manager posy ETV
vector 328 RSUExampleScenario.manager speed ETV
vector 329 RSUExampleScenario.manager acceleration ETV
vector 330 RSUExampleScenario.manager co2emission ETV
vector 331 RSUExampleScenario.node[47].nic.phy80211p RadioState ETV
vector 332 RSUExampleScenario.node[47].nic.phy80211p RadioChannel ETV
vector 333 RSUExampleScenario.manager posx ETV
vector 334 RSUExampleScenario.manager posy ETV
vector 335 RSUExampleScenario.manager speed ETV
vector 336 RSUExampleScenario.manager acceleration ETV
vector 337 RSUExampleScenario.manager co2emission ETV
vector 338 RSUExampleScenario.node[48].nic.phy80211p RadioState ETV
vector 339 RSUExampleScenario.node[48].nic.phy80211p RadioChannel ETV
vector 340 RSUExampleScenario.manager posx ETV
vector 341 RSUExampleScenario.manager posy ETV
vector 342 RSUExampleScenario.manager speed ETV
vector 343 RSUExampleScenario.manager acceleration ETV
vector 344 RSUExampleScenario.manager co2emission ETV
vector 345 RSUExampleScenario.node[49].nic.phy80211p RadioState ETV
vector 346 RSUExampleScenario.node[49].nic.phy80211p RadioChannel ETV
vector 347 RSUExampleScenario.manager posx ETV
vector 348 RSUExampleScenario.manager posy ETV
vector 349 RSUExampleScenario.manager speed ETV
vector 350 RSUExampleScenario.manager acceleration ETV
vector 351 RSUExampleScenario.manager co2emission ETV
vector 352 RSUExampleScenario.node[50].nic.phy80211p RadioState ETV
vector 353 RSUExampleScenario.node[50].nic.phy80211p RadioChannel ETV
vector 354 RSUExampleScenario.manager posx ETV
vector 355 RSUExampleScenario.manager posy ETV
vector 356 RSUExampleScenario.manager speed ETV
vector 357 RSUExampleScenario.manager acceleration ETV
vector 358 RSUExampleScenario.manager co2emission ETV
vector 359 RSUExampleScenario.node[51].nic.phy80211p RadioState ETV
vector 360 RSUExampleScenario.node[51].nic.phy80211p RadioChannel ETV
vector 361 RSUExampleScenario.manager posx ETV
vector 362 RSUExampleScenario.manager posy ETV
vector 363 RSUExampleScenario.manager speed ETV
vector 364 RSUExampleScenario.manager acceleration ETV
vector 365 RSUExampleScenario.manager co2emission ETV
vector 366 RSUExampleScenario.node[52].nic.phy80211p RadioState ETV
vector 367 RSUExampleScenario.node[52].nic.phy80211p RadioChannel ETV
vector 368 RSUExampleScenario.manager posx ETV
vector 369 RSUExampleScenario.manager posy ETV
vector 370 RSUExampleScenario.manager speed ETV
vector 371 RSUExampleScenario.manager acceleration ETV
vector 372 RSUExampleScenario.manager co2emission ETV
vector 373 RSUExampleScenario.node[53].nic.phy80211p RadioState ETV
vector 374 RSUExampleScenario.node[53].nic.phy80211p RadioChannel ETV
vector 375 RSUExampleScenario.manager posx ETV
vector 376 RSUExampleScenario.manager posy ETV
vector 377 RSUExampleScenario.manager speed ETV
vector 378 RSUExampleScenario.manager acceleration ETV
vector 379 RSUExampleScenario.manager co2emission ETV
vector 380 RSUExampleScenario.node[54].nic.phy80211p RadioState ETV
vector 381 RSUExampleScenario.node[54].nic.phy80211p RadioChannel ETV
vector 382 RSUExampleScenario.manager posx ETV
vector 383 RSUExampleScenario.manager posy ETV
vector 384 RSUExampleScenario.manager speed ETV
vector 385 RSUExampleScenario.manager acceleration ETV
vector 386 RSUExampleScenario.manager co2emission ETV
vector 387 RSUExampleScenario.node[55].nic.phy80211p RadioState ETV
vector 388 RSUExampleScenario.node[55].nic.phy80211p RadioChannel ETV
vector 389 RSUExampleScenario.manager posx ETV
vector 390 RSUExampleScenario.manager posy ETV
vector 391 RSUExampleScenario.manager speed ETV
vector 392 RSUExampleScenario.manager acceleration ETV
vector 393 RSUExampleScenario.manager co2emission ETV
vector 394 RSUExampleScenario.node[56].nic.phy80211p RadioState ETV
vector 395 RSUExampleScenario.node[56].nic.phy80211p RadioChannel ETV
vector 396 RSUExampleScenario.manager posx ETV
vector 397 RSUExampleScenario.manager posy ETV
vector 398 RSUExampleScenario.manager speed ETV
vector 399 RSUExampleScenario.manager acceleration ETV
vector 400 RSUExampleScenario.manager co2emission ETV
vector 401 RSUExampleScenario.node[57].nic.phy80211p RadioState ETV
vector 402 RSUExampleScenario.node[57].nic.phy80211p RadioChannel ETV
vector 403 RSUExampleScenario.manager posx ETV
vector 404 RSUExampleScenario.manager posy ETV
vector 405 RSUExampleScenario.manager speed ETV
vector 406 RSUExampleScenario.manager acceleration ETV
vector 407 RSUExampleScenario.manager co2emission ETV
vector 408 RSUExampleScenario.node[58].nic.phy80211p RadioState ETV
vector 409 RSUExampleScenario.node[58].nic.phy80211p RadioChannel ETV
vector 410 RSUExampleScenario.manager posx ETV
vector 411 RSUExampleScenario.manager posy ETV
vector 412 RSUExampleScenario.manager speed ETV
vector 413 RSUExampleScenario.manager acceleration ETV
vector 414 RSUExampleScenario.manager co2emission ETV
vector 415 RSUExampleScenario.node[59].nic.phy80211p RadioState ETV
vector 416 RSUExampleScenario.node[59].nic.phy80211p RadioChannel ETV
vector 417 RSUExampleScenario.manager posx ETV
vector 418 RSUExampleScenario.manager posy ETV
vector 419 RSUExampleScenario.manager speed ETV
vector 420 RSUExampleScenario.manager acceleration ETV
vector 421 RSUExampleScenario.manager co2emission ETV
vector 422 RSUExampleScenario.node[60].nic.phy80211p RadioState ETV
vector 423 RSUExampleScenario.node[60].nic.phy80211p RadioChannel ETV
vector 424 RSUExampleScenario.manager posx ETV
vector 425 RSUExampleScenario.manager posy ETV
vector 426 RSUExampleScenario.manager speed ETV
vector 427 RSUExampleScenario.manager acceleration ETV
vector 428 RSUExampleScenario.manager co2emission ETV
vector 429 RSUExampleScenario.node[61].nic.phy80211p RadioState ETV
vector 430 RSUExampleScenario.node[61].nic.phy80211p RadioChannel ETV
vector 431 RSUExampleScenario.manager posx ETV
vector 432 RSUExampleScenario.manager posy ETV
vector 433 RSUExampleScenario.manager speed ETV
vector 434 RSUExampleScenario.manager acceleration ETV
vector 435 RSUExampleScenario.manager co2emission ETV
vector 436 RSUExampleScenario.node[62].nic.phy80211p RadioState ETV
vector 437 RSUExampleScenario.node[62].nic.phy80211p RadioChannel ETV
vector 438 RSUExampleScenario.manager posx ETV
vector 439 RSUExampleScenario.manager posy ETV
vector 440 RSUExampleScenario.manager speed ETV
vector 441 RSUExampleScenario.manager acceleration ETV
vector 442 RSUExampleScenario.manager co2emission ETV
vector 443 RSUExampleScenario.node[63].nic.phy80211p RadioState ETV
vector 444 RSUExampleScenario.node[63].nic.phy80211p RadioChannel ETV
vector 445 RSUExampleScenario.manager posx ETV
vector 446 RSUExampleScenario.manager posy ETV
vector 447 RSUExampleScenario.manager speed ETV
vector 448 RSUExampleScenario.manager acceleration ETV
vector 449 RSUExampleScenario.manager co2emission ETV
vector 450 RSUExampleScenario.node[64].nic.phy80211p RadioState ETV
vector 451 RSUExampleScenario.node[64].nic.phy80211p RadioChannel ETV
vector 452 RSUExampleScenario.manager posx ETV
vector 453 RSUExampleScenario.manager posy ETV
vector 454 RSUExampleScenario.manager speed ETV
vector 455 RSUExampleScenario.manager acceleration ETV
vector 456 RSUExampleScenario.manager co2emission ETV
vector 457 RSUExampleScenario.node[65].nic.phy80211p RadioState ETV
vector 458 RSUExampleScenario.node[65].nic.phy80211p RadioChannel ETV
vector 459 RSUExampleScenario.manager posx ETV
vector 460 RSUExampleScenario.manager posy ETV
vector 461 RSUExampleScenario.manager speed ETV
vector 462 RSUExampleScenario.manager acceleration ETV
vector 463 RSUExampleScenario.manager co2emission ETV
vector 464 RSUExampleScenario.node[66].nic.phy80211p RadioState ETV
vector 465 RSUExampleScenario.node[66].nic.phy80211p RadioChannel ETV
vector 466 RSUExampleScenario.manager posx ETV
vector 467 RSUExampleScenario.manager posy ETV
vector 468 RSUExampleScenario.manager speed ETV
4	2	1	2414.8476884116
4	3	2	2411.8243290941
4	5	3	2407.1592244543
4	6	4	2402.288200066
4	7	5	2396.1394374635
4	9	6	2388.6993875942
4	10	7	2379.889221533
4	11	8	2370.1207192459
4	13	9	2360.3141803208
4	14	10	2350.5099475634
4	15	11	2341.0010868867
4	17	12	2334.5620136983
4	19	13	2337.6803779466
4	20	14	2348.3497968862
4	22	15	2358.6961674725
4	24	16	2371.6616533546
4	25	17	2385.4706804305
4	27	18	2399.3588350668
4	29	19	2412.4541998667
4	30	20	2421.4418196582
4	32	21	2428.417609864
4	34	22	2431.468930052
4	36	23	2433.1513403206
4	38	24	2435.1237040944
4	40	25	2437.2173147583
4	42	26	2438.6437980286
4	44	27	2439.5074353185
4	46	28	2440.517813261
4	48	29	2441.5286354903
4	50	30	2442.5392864447
4	52	31	2443.5505626462
4	54	32	2444.5611125134
4	57	33	2445.5724211388
4	59	34	2446.5834693939
4	61	35	2447.5934051003
4	64	36	2448.6036931522
4	66	37	2449.6148620235
4	68	38	2450.6248001783
4	71	39	2449.5880553933
4	73	40	2448.4757357414
4	75	41	2447.3635385588
4	78	42	2446.250303259
4	81	43	2445.1365203297
4	83	44	2444.0235521834
4	86	45	2442.9111769209
4	89	46	2441.7982721732
4	91	47	2440.6856421625
4	94	48	2439.7151308154
4	97	49	2438.7725309408
4	99	50	2437.9056889905
4	102	51	2432.8785054281
4	105	52	2422.5273191113
4	108	53	2409.439604845
4	111	54	2395.517893619
4	114	55	2381.592286239
4	117	56	2367.6659531716
4	120	57	2353.7601239877
4	123	58	2339.8337569573
4	126	59	2325.9069679289
4	129	60	2311.9542202253
4	132	61	2298.0325140053
4	135	62	2284.0857072632
4	139	63	2270.1754193477
4	142	64	2256.2378749268
4	145	65	2242.3725172955
4	149	66	2228.5623045168
4	152	67	2214.8068758136
4	155	68	2201.6159272967
4	159	69	2188.41049514
4	162	70	2175.4595331684
4	165	71	2163.4460695032
4	169	72	2152.2029822947
4	173	73	2144.5427125699
4	177	74	2140.7603855053
4	181	75	2140.3234504706
4	185	76	2140.3234504706
4	188	77	2140.3234504706
4	192	78	2140.3234504706
4	196	79	2140.3234504706
4	199	80	2140.3234504706
4	203	81	2140.3234504706
4	207	82	2140.3234504706
4	211	83	2140.3234504706
4	215	84	2140.3234504706
4	219	85	2140.3234504706
4	223	86	2140.3234504706
4	227	87	2140.3234504706
4	231	88	2140.3234504706
4	235	89	2140.3234504706
4	239	90	2140.3234504706
4	243	91	2140.3234504706
4	247	92	2140.3234504706
4	252	93	2140.3234504706
4	256	94	2140.3234504706
4	260	95	2140.3234504706
4	265	96	2140.3234504706
4	269	97	2140.3234504706
4	273	98	2140.3234504706
4	278	99	2140.3234504706
4	282	100	2140.3234504706
4	286	101	2140.3234504706
4	291	102	2140.3234504706
4	296	103	2140.3234504706
4	301	104	2140.3234504706
4	306	105	2140.3234504706
4	311	106	2140.3234504706
4	315	107	2140.3234504706
4	320	108	2140.3234504706
4	325	109	2140.3234504706
4	329	110	2140.3234504706
4	334	111	2140.3234504706
4	339	112	2140.3234504706
4	344	113	2140.3234504706
4	349	114	2140.3234504706
4	354	115	2140.3234504706
4	359	116	2140.3234504706
4	364	117	2140.3234504706
4	369	118	2140.3234504706
4	374	119	2140.3234504706
4	379	120	2140.3234504706
4	384	121	2140.3234504706
4	389	122	2140.3234504706
4	395	123	2140.3234504706
4	401	124	2139.2991757134
4	406	125	2136.740978117
4	412	126	2133.0437330272
4	417	127	2128.0124995244
4	422	128	2121.6776393328
4	428	129	2113.9053156064
4	433	130	2104.7718132839
4	438	131	2095.2426245916
4	444	132	2085.7055441276
4	450	133	2076.1895091444
4	456	134	2066.6453758157
4	462	135	2057.1233999465
4	468	136	2047.583753188
4	473	137	2037.6024164768
4	479	138	2027.6027097306
4	485	139	2017.6025945829
4	490	140	2007.6323289589
4	496	141	1997.6345246225
4	502	142	1987.6493390393
4	508	143	1977.6474462437
4	514	144	1967.6534846346
4	520	145	1957.6399751548
4	526	146	1947.6342267399
4	532	147	1937.6494381753
4	538	148	1927.928621011
4	544	149	1918.1922363789
4	550	150	1908.4659643128
4	556	151	1898.7310320458
4	562	152	1888.9856289678
4	569	153	1879.2423715481
4	576	154	1869.5010189842
4	582	155	1859.7669972274
4	589	156	1850.0458060472
4	595	157	1840.3217494305
4	601	158	1830.3623135871
4	608	159	1820.2507284771
4	614	160	1810.1499691318
4	620	161	1800.1768924127
4	627	162	1790.2264887124
4	634	163	1780.2619667375
4	641	164	1770.3013567271
4	648	165	1760.355369436
4	655	166	1750.3975141611
4	661	167	1740.4401156085
4	668	168	1730.4731193862
4	675	169	1720.5177903826
4	681	170	1710.5642872168
4	688	171	1700.6247857276
4	695	172	1690.6660600266
4	702	173	1680.7239540648
4	709	174	1670.7639126923
4	716	175	1660.8062731932
4	723	176	1650.8428831969
4	730	177	1640.8988660362
4	737	178	1630.9505771939
4	744	179	1621.0011728655
4	751	180	1611.2169178124
4	758	181	1601.406057158
4	765	182	1591.5816465307
4	773	183	1581.7654885541
4	781	184	1571.9460328016
4	788	185	1562.1425790023
4	796	186	1551.7188460099
4	803	187	1541.1711137802
4	810	188	1530.6170686011
4	818	189	1520.0545062125
4	825	190	1509.4988027049
4	832	191	1498.4726457515
4	840	192	1487.0601858251
4	848	193	1475.6552925752
4	856	194	1464.2593597289
4	864	195	1452.834655975
4	872	196	1440.6560960492
4	879	197	1428.0478429439
4	887	198	1415.4093963348
4	895	199	1402.7775768915
4	902	200	1389.5147644829
5	2	1	1578.4613427464
5	3	2	1579.5715045081
5	5	3	1581.5561876604
5	6	4	1586.4898643075
5	7	5	1592.7177137369
5	9	6	1600.2534592729
5	10	7	1609.1769437566
5	11	8	1619.0710908128
5	13	9	1629.0037637418
5	14	10	1638.9341008412
5	15	11	1649.1129276818
5	17	12	1661.0453354148
5	19	13	1673.5713017788
5	20	14	1682.4825292248
5	22	15	1691.8131453674
5	24	16	1695.5671389326
5	25	17	1697.3762977775
5	27	18	1698.7149431584
5	29	19	1699.9531973498
5	30	20	1700.8030368192
5	32	21	1701.4822415169
5	34	22	1709.488976148
5	36	23	1720.5600911779
5	38	24	1733.5392477075
5	40	25	1747.3162704222
5	42	26	1761.1584832035
5	44	27	1775.0702432813
5	46	28	1788.9649324082
5	48	29	1802.8657313576
5	50	30	1816.7641749373
5	52	31	1830.6712168986
5	54	32	1844.5682703312
5	57	33	1858.4757581847
5	59	34	1872.3796654344
5	61	35	1886.2682729438
5	64	36	1900.1617258992
5	66	37	1914.0672918586
5	68	38	1927.95593304
5	71	39	1941.8192613758
5	73	40	1955.7024557721
5	75	41	1969.5841215905
5	78	42	1983.4787444612
5	81	43	1997.3802024601
5	83	44	2011.2714909082
5	86	45	2025.1553793969
5	89	46	2039.0458765477
5	91	47	2052.9329446238
5	94	48	2066.8462265795
5	97	49	2080.7728807703
5	99	50	2094.6498483503
5	102	51	2107.3969092406
5	105	52	2116.410831539
5	108	53	2120.9360540062
5	111	54	2120.5048353085
5	114	55	2120.0344859883
5	117	56	2119.5641121576
5	120	57	2119.0944308629
5	123	58	2118.6240558857
5	126	59	2118.1536666537
5	129	60	2117.6824006466
5	132	61	2117.2121830918
5	135	62	2116.7411177447
5	139	63	2116.2712858524
5	142	64	2115.8005333487
5	145	65	2114.7955725584
5	149	66	2112.8371776454
5	152	67	2110.6451732265
5	155	68	2106.1714176713
5	159	69	2101.6927499389
5	162	70	2096.6090699211
5	165	71	2089.5369335469
5	169	72	2082.9183056299
5	173	73	2078.4088257942
5	177	74	2076.1822295729
5	181	75	2075.9250128167
5	185	76	2075.9250128167
5	188	77	2075.9250128167
5	192	78	2075.9250128167
5	196	79	2075.9250128167
5	199	80	2075.9250128167
5	203	81	2075.9250128167
5	207	82	2075.9250128167
5	211	83	2075.9250128167
5	215	84	2075.9250128167
5	219	85	2075.9250128167
5	223	86	2075.9250128167
5	227	87	2075.9250128167
5	231	88	2075.9250128167
5	235	89	2075.9250128167
5	239	90	2075.9250128167
5	243	91	2075.9250128167
5	247	92	2075.9250128167
5	252	93	2075.9250128167
5	256	94	2075.9250128167
5	260	95	2075.9250128167
5	265	96	2075.9250128167
5	269	97	2075.9250128167
5	273	98	2075.9250128167
5	278	99	2075.9250128167
5	282	100	2075.9250128167
5	286	101	2075.9250128167
5	291	102	2075.9250128167
5	296	103	2075.9250128167
5	301	104	2075.9250128167
5	306	105	2075.9250128167
5	311	106	2075.9250128167
5	315	107	2075.9250128167
5	320	108	2075.9250128167
5	325	109	2075.9250128167
5	329	110	2075.9250128167
5	334	111	2075.9250128167
5	339	112	2075.9250128167
5	344	113	2075.9250128167
5	349	114	2075.9250128167
5	354	115	2075.9250128167
5	359	116	2075.9250128167
5	364	117	2075.9250128167
5	369	118	2075.9250128167
5	374	119	2075.9250128167
5	379	120	2075.9250128167
5	384	121	2075.9250128167
5	389	122	2075.9250128167
5	395	123	2075.9250128167
5	401	124	2075.1267298609
5	406	125	2072.866368236
5	412	126	2068.9195549712
5	417	127	2063.5487075839
5	422	128	2056.7862372501
5	428	129	2048.4892729856
5	433	130	2038.7392490497
5	438	131	2028.5668294709
5	444	132	2018.3859854173
5	450	133	2008.2276074374
5	456	134	1998.0392344436
5	462	135	1987.8745145611
5	468	136	1977.7373199994
5	473	137	1968.0344733419
5	479	138	1958.3137691934
5	485	139	1948.5926680388
5	490	140	1938.9005835736
5	496	141	1929.1817287551
5	502	142	1919.4751406135
5	508	143	1909.7523114095
5	514	144	1900.0371921025
5	520	145	1890.3030703319
5	526	146	1880.5764930835
5	532	147	1870.8686820688
5	538	148	1860.9073696751
5	544	149	1850.930104672
5	550	150	1840.9632024206
5	556	151	1830.9874257138
5	562	152	1821.0009191455
5	569	153	1811.01661132
5	576	154	1801.0342554757
5	582	155	1791.0594118051
5	589	156	1781.0977161424
5	595	157	1771.1330841519
5	601	158	1761.3972956436
5	608	159	1751.7938673962
5	614	160	1742.2007208653
5	620	161	1732.4566419283
5	627	162	1722.7051216755
5	634	163	1712.939765336
5	641	164	1703.1782427719
5	648	165	1693.4310506545
5	655	166	1683.6722277654
5	661	167	1673.9138524691
5	668	168	1664.1460713372
5	675	169	1654.3897242248
5	681	170	1644.6351664569
5	688	171	1634.8943305071
5	695	172	1625.1346545899
5	702	173	1615.391266224
5	709	174	1605.6303009316
5	716	175	1595.8716895059
5	723	176	1586.1074425196
5	730	177	1576.362181155
5	737	178	1566.6127334898
5	744	179	1556.8621926336
5	751	180	1547.0969516989
5	758	181	1537.193341312
5	765	182	1527.2760528531
5	773	183	1517.3670950644
5	781	184	1507.4548083227
5	788	185	1497.5586748132
5	796	186	1488.2961548949
5	803	187	1479.172309787
5	810	188	1470.0430039447
5	818	189	1460.9063306702
5	825	190	1451.7755903648
5	832	191	1443.2296422943
5	840	192	1435.1870435383
5	848	193	1427.1497771768
5	856	194	1419.1188253993
5	864	195	1411.0675981613
5	872	196	1404.3439241508
5	879	197	1398.3996409876
5	887	198	1392.4411228038
5	895	199	1386.485729062
5	902	200	1382.1386472574
6	3	2	4.1061966058897
6	5	3	6.0195495591482
6	6	4	7.7148368984793
6	7	5	9.5879868385225
6	9	6	11.391389363371
6	10	7	13.513839789145
6	11	8	13.99235115225
6	13	9	13.890224446259
6	14	10	13.976677174468
6	15	11	13.994826577434
6	17	12	13.923680325528
6	19	13	13.923542996629
6	20	14	13.91007151508
6	22	15	13.964598868005
6	24	16	13.995233640105
6	25	17	13.952304350403
6	27	18	13.956911946491
6	29	19	11.503494614513
6	30	20	7.0034946145128
6	32	21	7.8970062485022
6	34	22	10.10483181514
6	36	23	11.990706169653
6	38	24	13.981089308816
6	40	25	13.965594365916
6	42	26	13.989059597438
6	44	27	13.956378436291
6	46	28	13.910982951869
6	48	29	13.88918493646
6	50	30	13.908189346099
6	52	31	13.983992603337
6	54	32	13.971500478752
6	57	33	13.873081948087
6	59	34	13.985133641064
6	61	35	13.886848415199
6	64	36	13.876205747321
6	66	37	13.967912819823
6	68	38	13.871047234884
6	71	39	13.89239756926
6	73	40	13.872267716837
6	75	41	13.999815066161
6	78	42	13.964707984752
6	81	43	13.906584702837
6	83	44	13.922364303169
6	86	45	13.929034490574
6	89	46	13.93922677479
6	91	47	13.924399639922
6	94	48	13.96850544848
6	97	49	13.986686690277
6	99	50	13.935194088209
6	102	51	13.930097484484
6	105	52	13.948393711536
6	108	53	13.882971800906
6	111	54	13.87138918183
6	114	55	13.933780807857
6	117	56	13.942265776542
6	120	57	13.95140511482
6	123	58	13.886548467774
6	126	59	13.920721456567
6	129	60	13.906796863726
6	132	61	13.917803910668
6	135	62	13.924582225601
6	139	63	13.959688465288
6	142	64	13.957318032989
6	145	65	13.940553226951
6	149	66	13.879855337965
6	152	67	13.977758804618
6	155	68	13.914176650653
6	159	69	13.928041475909
6	162	70	13.977535404016
6	165	71	13.928572678084
6	169	72	11.364046791626
6	173	73	6.8640467916256
6	177	74	2.3640467916256
6	181	75	0
6	185	76	0
6	188	77	0
6	192	78	0
6	196	79	0
6	199	80	0
6	203	81	0
6	207	82	0
6	211	83	0
6	215	84	0
6	219	85	0
6	223	86	0
6	227	87	0
6	231	88	0
6	235	89	0
6	239	90	0
6	243	91	0
6	247	92	0
6	252	93	0
6	256	94	0
6	260	95	0
6	265	96	0
6	269	97	0
6	273	98	0
6	278	99	0
6	282	100	0
6	286	101	0
6	291	102	0
6	296	103	0
6	301	104	0
6	306	105	0
6	311	106	0
6	315	107	0
6	320	108	0
6	325	109	0
6	329	110	0
6	334	111	0
6	339	112	0
6	344	113	0
6	349	114	0
6	354	115	0
6	359	116	0
6	364	117	0
6	369	118	0
6	374	119	0
6	379	120	0
6	384	121	0
6	389	122	0
6	395	123	0
6	401	124	2.2219942613752
6	406	125	4.3816652589273
6	412	126	6.271098397682
6	417	127	8.1846742143464
6	422	128	10.238758130733
6	428	129	12.368734642219
6	433	130	13.962109271805
6	438	131	13.914205637665
6	444	132	13.944517719341
6	450	133	13.879619830472
6	456	134	13.987641519217
6	462	135	13.937885804954
6	468	136	13.882018232113
6	473	137	13.88185503117
6	479	138	13.976765545025
6	485	139	13.936144929281
6	490	140	13.881702132632
6	496	141	13.95778504122
6	502	142	13.918313275371
6	508	143	13.927667983579
6	514	144	13.959930952911
6	520	145	13.997377569969
6	526	146	13.993235674808
6	532	147	13.917311959318
6	538	148	13.942867385286
6	544	149	13.980095429546
6	550	150	13.97857070602
6	556	151	13.959757562766
6	562	152	13.952024067997
6	569	153	13.876320435193
6	576	154	13.972333787882
6	582	155	13.970673537734
6	589	156	13.963069021048
6	595	157	13.931264800541
6	601	158	13.897907732588
6	608	159	13.902711392778
6	614	160	13.999029034502
6	620	161	13.933725612797
6	627	162	13.872506030898
6	634	163	13.928373940925
6	641	164	13.94527090376
6	648	165	13.917837886934
6	655	166	13.935613606579
6	661	167	13.899269058036
6	668	168	13.951878523156
6	675	169	13.949036541763
6	681	170	13.898167229365
6	688	171	13.910736216437
6	695	172	13.927789604696
6	702	173	13.886247167371
6	709	174	13.946384775518
6	716	175	13.92446657663
6	723	176	13.99466372533
6	730	177	13.925170157938
6	737	178	13.988803920329
6	744	179	13.956101579252
6	751	180	13.929496678174
6	758	181	13.878089943773
6	765	182	13.930902947583
6	773	183	13.978870710894
6	781	184	13.942439569917
6	788	185	13.916482416282
6	796	186	13.913281143934
6	803	187	13.872779091697
6	810	188	13.919343759529
6	818	189	13.96058773913
6	825	190	13.939253328196
6	832	191	13.901529799101
6	840	192	13.944611792597
6	848	193	13.938076884435
6	856	194	13.953860535712
6	864	195	13.985195662524
6	872	196	13.946562061303
6	879	197	13.880639836157
6	887	198	13.967846674775
6	895	199	13.891077681468
6	902	200	13.880399412508
7	5	3	1.9133529532584
7	6	4	1.6952873393311
7	7	5	1.8731499400432
7	9	6	1.8034025248489
7	10	7	2.1224504257739
7	11	8	0.47851136310433
7	13	9	-0.1021267059911
7	14	10	0.086452728209551
7	15	11	0.018149402965792
7	17	12	-0.071146251906175
7	19	13	-0.0001373288989992
7	20	14	-0.013471481548622
7	22	15	0.054527352924923
7	24	16	0.03063477210002
7	25	17	-0.04292928970186
7	27	18	0.0046075960877356
7	29	19	-2.4534173319781
7	30	20	-4.5
7	32	21	0.8935116339894
7	34	22	2.2078255666373
7	36	23	1.8858743545134
7	38	24	1.9903831391631
7	40	25	-0.01549494290026
7	42	26	0.023465231521987
7	44	27	-0.032681161146611
7	46	28	-0.045395484422334
7	48	29	-0.021798015409148
7	50	30	0.019004409639164
7	52	31	0.075803257238585
7	54	32	-0.012492124584968
7	57	33	-0.098418530665803
7	59	34	0.11205169297755
7	61	35	-0.098285225864965
7	64	36	-0.01064266787842
7	66	37	0.091707072502468
7	68	38	-0.096865584938786
7	71	39	0.021350334375166
7	73	40	-0.020129852422979
7	75	41	0.12754734932445
7	78	42	-0.035107081409079
7	81	43	-0.058123281914741
7	83	44	0.015779600332026
7	86	45	0.0066701874043797
7	89	46	0.010192284216172
7	91	47	-0.014827134867664
7	94	48	0.044105808557942
7	97	49	0.018181241797283
7	99	50	-0.051492602068466
7	102	51	-0.0050966037251055
7	105	52	0.018296227052343
7	108	53	-0.065421910630539
7	111	54	-0.011582619075197
7	114	55	0.062391626026946
7	117	56	0.0084849686850799
7	120	57	0.0091393382777465
7	123	58	-0.064856647045817
7	126	59	0.034172988792415
7	129	60	-0.013924592840485
7	132	61	0.011007046941668
7	135	62	0.0067783149331806
7	139	63	0.035106239686721
7	142	64	-0.0023704322986315
7	145	65	-0.016764806038699
7	149	66	-0.060697888985743
7	152	67	0.097903466653079
7	155	68	-0.063582153965253
7	159	69	0.013864825256169
7	162	70	0.049493928106967
7	165	71	-0.048962725931778
7	169	72	-2.5645258864584
7	173	73	-4.5
7	177	74	-4.5
7	181	75	-2.3640467916256
7	185	76	0
7	188	77	0
7	192	78	0
7	196	79	0
7	199	80	0
7	203	81	0
7	207	82	0
7	211	83	0
7	215	84	0
7	219	85	0
7	223	86	0
7	227	87	0
7	231	88	0
7	235	89	0
7	239	90	0
7	243	91	0
7	247	92	0
7	252	93	0
7	256	94	0
7	260	95	0
7	265	96	0
7	269	97	0
7	273	98	0
7	278	99	0
7	282	100	0
7	286	101	0
7	291	102	0
7	296	103	0
7	301	104	0
7	306	105	0
7	311	106	0
7	315	107	0
7	320	108	0
7	325	109	0
7	329	110	0
7	334	111	0
7	339	112	0
7	344	113	0
7	349	114	0
7	354	115	0
7	359	116	0
7	364	117	0
7	369	118	0
7	374	119	0
7	379	120	0
7	384	121	0
7	389	122	0
7	395	123	0
7	401	124	2.2219942613752
7	406	125	2.1596709975521
7	412	126	1.8894331387547
7	417	127	1.9135758166644
7	422	128	2.0540839163866
7	428	129	2.1299765114859
7	433	130	1.593374629586
7	438	131	-0.047903634139804
7	444	132	0.030312081675511
7	450	133	-0.064897888868581
7	456	134	0.10802168874536
7	462	135	-0.0497557142633
7	468	136	-0.055867572841235
7	473	137	-0.00016320094233357
7	479	138	0.094910513854119
7	485	139	-0.0406206157431
7	490	140	-0.054442796648946
7	496	141	0.076082908587995
7	502	142	-0.03947176584974
7	508	143	0.0093547082087024
7	514	144	0.032262969331351
7	520	145	0.037446617058013
7	526	146	-0.0041418951610108
7	532	147	-0.075923715489916
7	538	148	0.025555425968486
7	544	149	0.037228044259829
7	550	150	-0.0015247235260905
7	556	151	-0.018813143253793
7	562	152	-0.0077334947697807
7	569	153	-0.075703632803634
7	576	154	0.096013352689333
7	582	155	-0.0016602501482694
7	589	156	-0.0076045166864063
7	595	157	-0.031804220506457
7	601	158	-0.033357067953329
7	608	159	0.0048036601906638
7	614	160	0.096317641723436
7	620	161	-0.06530342170503
7	627	162	-0.061219581898769
7	634	163	0.055867910026574
7	641	164	0.016896962835453
7	648	165	-0.027433016826398
7	655	166	0.017775719645432
7	661	167	-0.036344548542983
7	668	168	0.052609465119895
7	675	169	-0.002841981393285
7	681	170	-0.050869312398136
7	688	171	0.012568987072445
7	695	172	0.017053388259374
7	702	173	-0.041542437325697
7	709	174	0.060137608146761
7	716	175	-0.021918198887724
7	723	176	0.070197148700244
7	730	177	-0.069493567391763
7	737	178	0.063633762390818
7	744	179	-0.032702341077384
7	751	180	-0.026604901077226
7	758	181	-0.051406734401827
7	765	182	0.05281300381059
7	773	183	0.047967763310298
7	781	184	-0.036431140976493
7	788	185	-0.025957153635099
7	796	186	-0.0032012723479422
7	803	187	-0.040502052237279
7	810	188	0.046564667832572
7	818	189	0.041243979600258
7	825	190	-0.021334410933777
7	832	191	-0.037723529094364
7	840	192	0.04308199349558
7	848	193	-0.0065349081624309
7	856	194	0.015783651277889
7	864	195	0.031335126811172
7	872	196	-0.03863360122079
7	879	197	-0.065922225145624
7	887	198	0.087206838617567
7	895	199	-0.076768993306905
7	902	200	-0.010678268959746
8	5	3	4.1962556146115
8	6	4	4.6765885426193
8	7	5	5.9822455727343
8	9	6	6.7469998477461
8	10	7	8.9023657158011
8	11	8	3.651678681686
8	13	9	1.6857621818206
8	14	10	2.3276633668785
8	15	11	2.0995306276608
8	17	12	1.7923040941768
8	19	13	2.0305681317735
8	20	14	1.9844951865828
8	22	15	2.2187318873595
8	24	16	2.1416854339172
8	25	17	1.8896148890835
8	27	18	2.0499339673421
8	29	19	0.973
8	30	20	0.973
8	32	21	3.236958348016
8	34	22	7.0694109561587
8	36	23	7.2974163894139
8	38	24	8.7433911631671
8	40	25	1.9831721788576
8	42	26	2.116835898497
8	44	27	1.9244585801898
8	46	28	1.8775583559564
8	48	29	1.9545657515643
8	50	30	2.0931646705581
8	52	31	2.2926746988581
8	54	32	1.993865292131
8	57	33	1.6968396252803
8	59	34	2.4149847823944
8	61	35	1.6983583398882
8	64	36	1.9906198998388
8	66	37	2.3442713071536
8	68	38	1.7018725964397
8	71	39	2.0993392475273
8	73	40	1.9585122345881
8	75	41	2.4691677522194
8	78	42	1.9170802753567
8	81	43	1.8345014514108
8	83	44	2.0838538984303
8	86	45	2.0539801513469
8	89	46	2.0668686152862
8	91	47	1.9813596940184
8	94	48	2.1840996762636
8	97	49	2.0987681125428
8	99	50	1.8592856847688
8	102	51	2.0145873760113
8	105	52	2.0950692067684
8	108	53	1.8080099866508
8	111	54	1.9870007069688
8	114	55	2.2415869227426
8	117	56	2.0614496349521
8	120	57	2.0646020593826
8	123	58	1.8102089718445
8	126	59	2.1453880261281
8	129	60	1.9826536733129
8	132	61	2.0673636130683
8	135	62	2.0538817544551
8	139	63	2.1528270365066
8	142	64	2.0265038417738
8	145	65	1.9764402783138
8	149	66	1.823544423566
8	152	67	2.3663700564531
8	155	68	1.816863137639
8	159	69	2.0780272006119
8	162	70	2.2032702170206
8	165	71	1.8671845150559
8	169	72	0.973
8	173	73	0.973
8	177	74	0.973
8	181	75	0.973
8	185	76	0.973
8	188	77	0.973
8	192	78	0.973
8	196	79	0.973
8	199	80	0.973
8	203	81	0.973
8	207	82	0.973
8	211	83	0.973
8	215	84	0.973
8	219	85	0.973
8	223	86	0.973
8	227	87	0.973
8	231	88	0.973
8	235	89	0.973
8	239	90	0.973
8	243	91	0.973
8	247	92	0.973
8	252	93	0.973
8	256	94	0.973
8	260	95	0.973
8	265	96	0.973
8	269	97	0.973
8	273	98	0.973
8	278	99	0.973
8	282	100	0.973
8	286	101	0.973
8	291	102	0.973
8	296	103	0.973
8	301	104	0.973
8	306	105	0.973
8	311	106	0.973
8	315	107	0.973
8	320	108	0.973
8	325	109	0.973
8	329	110	0.973
8	334	111	0.973
8	339	112	0.973
8	344	113	0.973
8	349	114	0.973
8	354	115	0.973
8	359	116	0.973
8	364	117	0.973
8	369	118	0.973
8	374	119	0.973
8	379	120	0.973
8	384	121	0.973
8	389	122	0.973
8	395	123	0.973
8	401	124	2.4080817491368
8	406	125	3.6097150181135
8	412	126	4.2908662920557
8	417	127	5.3300190940896
8	422	128	6.7716083595646
8	428	129	8.2306431470796
8	433	130	7.3964630212997
8	438	131	1.8694407969886
8	444	132	2.1350370330868
8	450	133	1.8094749832879
8	456	134	2.4017242150946
8	462	135	1.8653612770894
8	468	136	1.8398927616686
8	473	137	2.0262388539045
8	479	138	2.3561634646785
8	485	139	1.8958857007197
8	490	140	1.8446314622495
8	496	141	2.2904547203379
8	502	142	1.8980951179721
8	508	143	2.0628493417673
8	514	144	2.1432881440777
8	520	145	2.1648999396533
8	526	146	2.0241860811262
8	532	147	1.7757401158824
8	538	148	2.1188729782851
8	544	149	2.1622366330401
8	550	150	2.0315151224425
8	556	151	1.9714336212796
8	562	152	2.0079328186083
8	569	153	1.7730548201851
8	576	154	2.3593220789826
8	582	155	2.030253345154
8	589	156	2.0094753813518
8	595	157	1.9250359519245
8	601	158	1.9166915074702
8	608	159	2.0450014045122
8	614	160	2.3637012539276
8	620	161	1.8127769308894
8	627	162	1.8211610624293
8	634	163	2.2190555797815
8	641	164	2.0900337900892
8	648	165	1.9384315453697
8	655	166	2.0919597667029
8	661	167	1.9068118772232
8	668	168	2.2108155498546
8	675	169	2.024077022059
8	681	170	1.8580592979186
8	688	171	2.0718610825271
8	695	172	2.0887033898744
8	702	173	1.8882060425956
8	709	174	2.23548730923
8	716	175	1.9575701132037
8	723	176	2.2750553785815
8	730	177	1.7979768262424
8	737	178	2.2522284908343
8	744	179	1.9243612234919
8	751	180	1.9423232811624
8	758	181	1.8544662206567
8	765	182	2.2090912431541
8	773	183	2.198281357827
8	781	184	1.9105438619255
8	788	185	1.9432522168217
8	796	186	2.0192487951073
8	803	187	1.8904505105334
8	810	188	2.186804891094
8	818	189	2.1735770316035
8	825	190	1.9609618710416
8	832	191	1.9024022377325
8	840	192	2.1779625505358
8	848	193	2.0105604863
8	856	194	2.0872024215168
8	864	195	2.142943100938
8	872	196	1.9035259562631
8	879	197	1.8061360510748
8	887	198	2.3291141609331
8	895	199	1.7707192427041
8	902	200	1.9909162058012
11	6	4	2414.8767583254
11	7	5	2411.8725636174
11	9	6	2407.2970525089
11	10	7	2402.4626210862
11	11	8	2396.3056860371
11	13	9	2388.8743536096
11	14	10	2380.097228827
11	15	11	2370.3507264333
11	17	12	2360.5878487076
11	19	13	2350.7849318213
11	20	14	2341.2418729237
11	22	15	2334.6305580324
11	24	16	2337.3467480277
11	25	17	2348.0519014368
11	27	18	2358.3998493504
11	29	19	2371.2788021446
11	30	20	2385.0887639745
11	32	21	2398.4985461925
11	34	22	2411.2485283293
11	36	23	2420.6905829484
11	38	24	2427.6440450998
11	40	25	2431.3031180431
11	42	26	2432.9057471878
11	44	27	2434.8184996871
11	46	28	2436.9106889558
11	48	29	2438.5031214217
11	50	30	2439.359314087
11	52	31	2440.3695716034
11	54	32	2441.3815056744
11	57	33	2442.392207776
11	59	34	2443.4019859718
11	61	35	2444.4122552489
11	64	36	2445.4251439738
11	66	37	2446.4367595227
11	68	38	2447.4467230743
11	71	39	2448.4574488286
11	73	40	2449.467800329
11	75	41	2450.4780716181
11	78	42	2449.7461704329
11	81	43	2448.6331060936
11	83	44	2447.5209445587
11	86	45	2446.407523851
11	89	46	2445.2946584851
11	91	47	2444.1824360332
11	94	48	2443.0706190476
11	97	49	2441.9568028547
11	99	50	2440.8451110823
11	102	51	2439.8503503047
11	105	52	2438.9091742415
11	108	53	2438.2310626655
11	111	54	2433.9050446447
11	114	55	2424.21615465
11	117	56	2411.3460908785
11	120	57	2397.4706148925
11	123	58	2383.5587488873
11	126	59	2369.633660475
11	129	60	2355.7048479554
11	132	61	2341.7904321874
11	135	62	2327.8638711022
11	139	63	2313.9188814831
11	142	64	2299.9979078089
11	145	65	2286.0826278217
11	149	66	2272.1469357561
11	152	67	2258.2076214411
11	155	68	2244.3155730069
11	159	69	2230.5273849192
11	162	70	2216.7446519198
11	165	71	2203.5167182724
11	169	72	2190.3178840362
11	173	73	2177.2322881214
11	177	74	2166.0575198019
11	181	75	2157.6433227622
11	185	76	2151.7978679298
11	188	77	2148.12850579
11	192	78	2146.1504391922
11	196	79	2145.2176430746
11	199	80	2144.8457426265
11	203	81	2144.7095674569
11	207	82	2144.6606226763
11	211	83	2144.6429435182
11	215	84	2144.6366379777
11	219	85	2144.6343920679
11	223	86	2144.6335903119
11	227	87	2144.6333007435
11	231	88	2144.6331961942
11	235	89	2144.6331584929
11	239	90	2144.6331457664
11	243	91	2144.6331457664
11	247	92	2144.6331457664
11	252	93	2144.6331457664
11	256	94	2144.6331457664
11	260	95	2144.6331457664
11	265	96	2144.6331457664
11	269	97	2144.6331457664
11	273	98	2144.6331457664
11	278	99	2144.6331457664
11	282	100	2144.6331457664
11	286	101	2144.6331457664
11	291	102	2144.6331457664
11	296	103	2144.6331457664
11	301	104	2144.6331457664
11	306	105	2144.6331457664
11	311	106	2144.6331457664
11	315	107	2144.6331457664
11	320	108	2144.6331457664
11	325	109	2144.6331457664
11	329	110	2144.6331457664
11	334	111	2144.6331457664
11	339	112	2144.6331457664
11	344	113	2144.6331457664
11	349	114	2144.6331457664
11	354	115	2144.6331457664
11	359	116	2144.6331457664
11	364	117	2144.6331457664
11	369	118	2144.6331457664
11	374	119	2144.6331457664
11	379	120	2144.6331457664
11	384	121	2144.6331457664
11	389	122	2144.6331457664
11	395	123	2144.6331457664
11	401	124	2144.2735331957
11	406	125	2142.4819488054
11	412	126	2139.1437733911
11	417	127	2134.907750076
11	422	128	2127.1494379189
11	428	129	2120.4386431823
11	433	130	2112.3740940582
11	438	131	2103.1480110274
11	444	132	2093.6299389725
11	450	133	2084.09545489
11	456	134	2074.5798363335
11	462	135	2065.0642647928
11	468	136	2055.5515816797
11	473	137	2046.0345663332
11	479	138	2036.0491629012
11	485	139	2026.0456549987
11	490	140	2016.0567219943
11	496	141	2006.0733355316
11	502	142	1996.0850957901
11	508	143	1986.0887009412
11	514	144	1976.1065010969
11	520	145	1966.0956376174
11	526	146	1956.0883026733
11	532	147	1946.102721339
11	538	148	1936.1056732843
11	544	149	1926.3530366175
11	550	150	1916.6185368866
11	556	151	1906.8889419071
11	562	152	1897.1665026398
11	569	153	1887.4382809714
11	576	154	1877.7072179955
11	582	155	1867.9735022015
11	589	156	1858.2475249238
11	595	157	1848.5171179966
11	601	158	1838.7888541779
11	608	159	1828.8686593759
11	614	160	1818.7678382428
11	620	161	1808.6559816556
11	627	162	1798.6885089152
11	634	163	1788.7286004601
11	641	164	1778.7720336015
11	648	165	1768.8152560804
11	655	166	1758.863347329
11	661	167	1748.9227209409
11	668	168	1738.9921341098
11	675	169	1729.0396420762
11	681	170	1719.0919024192
11	688	171	1709.1413058966
11	695	172	1699.1956016464
11	702	173	1689.2384584047
11	709	174	1679.2886373461
11	716	175	1669.3454705556
11	723	176	1659.3961386186
11	730	177	1649.4273799836
11	737	178	1639.4905001441
11	744	179	1629.5261656092
11	751	180	1619.5645992497
11	758	181	1609.7630199882
11	765	182	1599.9681874448
11	773	183	1590.1822985463
11	781	184	1580.387474378
11	788	185	1570.5859664991
11	796	186	1560.7834474324
11	803	187	1550.4690440694
11	810	188	1539.9294290863
11	818	189	1529.4025482147
11	825	190	1518.8761525435
11	832	191	1508.3346210291
11	840	192	1497.4208682139
11	848	193	1486.0321445228
11	856	194	1474.6478158315
11	864	195	1463.2656483016
11	872	196	1451.8848583789
11	879	197	1439.8341428841
11	887	198	1427.2565689776
11	895	199	1414.6826889486
11	902	200	1402.0975237866
12	6	4	1578.4506684253
12	7	5	1579.5537930429
12	9	6	1581.4165868293
12	10	7	1586.3131998433
12	11	8	1592.5493268352
12	13	9	1600.0762428036
12	14	10	1608.9662610246
12	15	11	1618.8381252186
12	17	12	1628.7265753681
12	19	13	1638.6555796713
12	20	14	1648.8046840783
12	22	15	1660.6325348346
12	24	16	1673.301875555
12	25	17	1682.2138796467
12	27	18	1691.5459182626
12	29	19	1695.5099147679
12	30	20	1697.3308411958
12	32	21	1698.6335971011
12	34	22	1699.8391930545
12	36	23	1700.7320023719
12	38	24	1701.2941834759
12	40	25	1708.3978488175
12	42	26	1718.9439634858
12	44	27	1731.5308475178
12	46	28	1745.2985167308
12	48	29	1759.1189484736
12	50	30	1773.033284259
12	52	31	1786.9263172904
12	54	32	1800.8424062571
12	57	33	1814.7415532097
12	59	34	1828.6279946407
12	61	35	1842.5211894047
12	64	36	1856.4504067414
12	66	37	1870.362115399
12	68	38	1884.2511058366
12	71	39	1898.150578063
12	73	40	1912.0449035605
12	75	41	1925.9381259941
12	78	42	1939.8457802581
12	81	43	1953.7382693188
12	83	44	1967.6194902081
12	86	45	1981.5164272105
12	89	46	1995.4064328251
12	91	47	2009.2884140396
12	94	48	2023.165334505
12	97	49	2037.0672076773
12	99	50	2050.942565321
12	102	51	2064.8483957723
12	105	52	2078.754013543
12	108	53	2092.6537938379
12	111	54	2105.6893007364
12	114	55	2115.3934075218
12	117	56	2120.5034639826
12	120	57	2120.5707901428
12	123	58	2120.100904949
12	126	59	2119.6305731572
12	129	60	2119.160115581
12	132	61	2118.6901442679
12	135	62	2118.2197627351
12	139	63	2117.748758764
12	142	64	2117.2785659507
12	145	65	2116.8085654471
12	149	66	2116.3378755087
12	152	67	2115.8670632252
12	155	68	2115.0711128758
12	159	69	2113.1158412341
12	162	70	2111.1613431666
12	165	71	2106.8160774671
12	169	72	2102.339647443
12	173	73	2097.6526627708
12	177	74	2091.0742531046
12	181	75	2086.1209481629
12	185	76	2082.6798211997
12	188	77	2080.5197256459
12	192	78	2079.3552690716
12	196	79	2078.806146726
12	199	80	2078.5872148043
12	203	81	2078.5070506316
12	207	82	2078.4782376122
12	211	83	2078.4678301709
12	215	84	2078.4641181994
12	219	85	2078.4627960678
12	223	86	2078.4623240866
12	227	87	2078.4621536219
12	231	88	2078.4620920755
12	235	89	2078.4620698811
12	239	90	2078.4620623896
12	243	91	2078.4620623896
12	247	92	2078.4620623896
12	252	93	2078.4620623896
12	256	94	2078.4620623896
12	260	95	2078.4620623896
12	265	96	2078.4620623896
12	269	97	2078.4620623896
12	273	98	2078.4620623896
12	278	99	2078.4620623896
12	282	100	2078.4620623896
12	286	101	2078.4620623896
12	291	102	2078.4620623896
12	296	103	2078.4620623896
12	301	104	2078.4620623896
12	306	105	2078.4620623896
12	311	106	2078.4620623896
12	315	107	2078.4620623896
12	320	108	2078.4620623896
12	325	109	2078.4620623896
12	329	110	2078.4620623896
12	334	111	2078.4620623896
12	339	112	2078.4620623896
12	344	113	2078.4620623896
12	349	114	2078.4620623896
12	354	115	2078.4620623896
12	359	116	2078.4620623896
12	364	117	2078.4620623896
12	369	118	2078.4620623896
12	374	119	2078.4620623896
12	379	120	2078.4620623896
12	384	121	2078.4620623896
12	389	122	2078.4620623896
12	395	123	2078.4620623896
12	401	124	2078.2503641471
12	406	125	2077.1956867045
12	412	126	2075.0026399465
12	417	127	2070.9093952533
12	422	128	2067.4509590482
12	428	129	2060.2879281444
12	433	130	2051.67991421
12	438	131	2041.8320913417
12	444	132	2031.6726024961
12	450	133	2021.4955956256
12	456	134	2011.3387256181
12	462	135	2001.181905794
12	468	136	1991.0281690462
12	473	137	1980.8698081197
12	479	138	1971.1275830893
12	485	139	1961.4034622405
12	490	140	1951.6935092295
12	496	141	1941.9889478516
12	502	142	1932.2796687409
12	508	143	1922.5624622861
12	514	144	1912.8590543857
12	520	145	1903.1277833935
12	526	146	1893.3999423888
12	532	147	1883.6932474393
12	538	148	1873.9754060218
12	544	149	1864.0198620884
12	550	150	1854.0446953345
12	556	151	1844.0745545933
12	562	152	1834.1117464751
12	569	153	1824.1430129977
12	576	154	1814.1713679666
12	582	155	1804.1970045306
12	589	156	1794.2305709319
12	595	157	1784.2595981685
12	601	158	1774.2908214992
12	608	159	1764.5305910306
12	614	160	1754.9392411392
12	620	161	1745.3374124058
12	627	162	1735.6226016367
12	634	163	1725.8617250575
12	641	164	1716.104123299
12	648	165	1706.3463150878
12	655	166	1696.5932783522
12	661	167	1686.8512985203
12	668	168	1677.1191576226
12	675	169	1667.3655492608
12	681	170	1657.6165983072
12	688	171	1647.8648475772
12	695	172	1638.1178913563
12	702	173	1628.359724733
12	709	174	1618.6087339707
12	716	175	1608.8642645031
12	723	176	1599.1137530878
12	730	177	1589.3442031853
12	737	178	1579.605895034
12	744	179	1569.8406808227
12	751	180	1560.0781794703
12	758	181	1550.3213544441
12	765	182	1540.4339561053
12	773	183	1530.555585932
12	781	184	1520.6681960477
12	788	185	1510.7740592873
12	796	186	1500.8789017834
12	803	187	1491.5686065638
12	810	188	1482.4528539395
12	818	189	1473.3481150959
12	825	190	1464.2437959034
12	832	191	1455.1263856646
12	840	192	1446.5030821236
12	848	193	1438.4827095335
12	856	194	1430.4654320693
12	864	195	1422.449676577
12	872	196	1414.4348912481
12	879	197	1407.6011645319
12	887	198	1401.6713453745
12	895	199	1395.7432677308
12	902	200	1389.8098696023
13	7	5	4.0332649588119
13	9	6	5.8265110515686
13	10	7	7.7852127750962
13	11	8	9.5658873894228
13	13	9	11.450149483434
13	14	10	13.391487500134
13	15	11	13.949883621705
13	17	12	13.87602620427
13	19	13	13.885232782268
13	20	14	13.987373048679
13	22	15	13.890608048609
13	24	16	13.887004709987
13	25	17	13.926980708602
13	27	18	13.89086526999
13	29	19	13.965056618985
13	30	20	13.946692067499
13	32	21	13.097137451398
13	34	22	11.939132677032
13	36	23	7.4783001788439
13	38	24	7.8592269216425
13	40	25	9.5749213322898
13	42	26	11.610942506126
13	44	27	13.581243869506
13	46	28	13.973211987913
13	48	29	13.918392209036
13	50	30	13.928662607018
13	52	31	13.985277111761
13	54	32	13.95532245066
13	57	33	13.938708755139
13	59	34	13.908545650935
13	61	35	13.927478809105
13	64	36	13.897819017794
13	66	37	13.989504252097
13	68	38	13.94374062394
13	71	39	13.903882643976
13	73	40	13.969130632835
13	75	41	13.884234787642
13	78	42	13.881978327318
13	81	43	13.927070145076
13	83	44	13.922745489741
13	86	45	13.95273740395
13	89	46	13.968270483359
13	91	47	13.918685564972
13	94	48	13.921468284922
13	97	49	13.897015957548
13	99	50	13.964752228069
13	102	51	13.91147568828
13	105	52	13.974545761354
13	108	53	13.965476403411
13	111	54	13.989670229855
13	114	55	13.951804798429
13	117	56	13.892850009208
13	120	57	13.958218119799
13	123	58	13.933717581006
13	126	59	13.982012811573
13	129	60	13.954506225567
13	132	61	13.954468280503
13	135	62	13.914126337939
13	139	63	13.998578815588
13	142	64	13.932968401979
13	145	65	13.954534002345
13	149	66	13.998651232829
13	152	67	13.999179182528
13	155	68	13.886099785112
13	159	69	13.881868150404
13	162	70	13.887636745651
13	165	71	13.978686858166
13	169	72	13.970344127666
13	173	73	13.925369204739
13	177	74	11.503028205973
13	181	75	8.3084939661969
13	185	76	5.5757626568646
13	188	77	3.3211618849162
13	192	78	1.6266335353547
13	196	79	0.70715133051593
13	199	80	0.26232084274652
13	203	81	0.09568805664727
13	207	82	0.033835632228035
13	211	83	0.012538818862259
13	215	84	0.0044949869302171
13	219	85	0.0015515939487704
13	223	86	0.00056220080715219
13	227	87	0.00020206205078003
13	231	88	7.377202567928e-05
13	235	89	2.5992050168431e-05
13	239	90	0
13	243	91	0
13	247	92	0
13	252	93	0
13	256	94	0
13	260	95	0
13	265	96	0
13	269	97	0
13	273	98	0
13	278	99	0
13	282	100	0
13	286	101	0
13	291	102	0
13	296	103	0
13	301	104	0
13	306	105	0
13	311	106	0
13	315	107	0
13	320	108	0
13	325	109	0
13	329	110	0
13	334	111	0
13	339	112	0
13	344	113	0
13	349	114	0
13	354	115	0
13	359	116	0
13	364	117	0
13	369	118	0
13	374	119	0
13	379	120	0
13	384	121	0
13	389	122	0
13	395	123	0
13	401	124	1.0454558987028
13	406	125	2.9868171353696
13	412	126	4.808853949494
13	417	127	6.8169594475553
13	422	128	8.7688218932254
13	428	129	10.599189001744
13	433	130	12.630716309655
13	438	131	13.911355651631
13	444	132	13.959096302334
13	450	133	13.985669557508
13	456	134	13.912786148109
13	462	135	13.880683887878
13	468	136	13.921652116431
13	473	137	13.904044170342
13	479	138	13.928399279253
13	485	139	13.947232982973
13	490	140	13.957098587838
13	496	141	13.872669367229
13	502	142	13.988834063003
13	508	143	13.962365872057
13	514	144	13.978590016267
13	520	145	13.996544766314
13	526	146	13.909791962707
13	532	147	13.955426083545
13	538	148	13.916719595476
13	544	149	13.96472714375
13	550	150	13.96898798909
13	556	151	13.902139999291
13	562	152	13.980534003156
13	569	153	13.976162572829
13	576	154	13.902045026864
13	582	155	13.998268041729
13	589	156	13.981719435903
13	595	157	13.904254397955
13	601	158	13.91068194794
13	608	159	13.901592570813
13	614	160	13.871256113877
13	620	161	13.9870051032
13	627	162	13.963580676371
13	634	163	13.94083829636
13	641	164	13.980116114989
13	648	165	13.977826093403
13	655	166	13.954251742228
13	661	167	13.894492452065
13	668	168	13.893317757975
13	675	169	13.907786323659
13	681	170	13.910502062014
13	688	171	13.881678228341
13	695	172	13.899310339873
13	702	173	13.872349197764
13	709	174	13.895146320874
13	716	175	13.975084472168
13	723	176	13.915615806044
13	730	177	13.983601140513
13	737	178	13.901822753502
13	744	179	13.971918848483
13	751	180	13.912339184245
13	758	181	13.972755345376
13	765	182	13.878797757998
13	773	183	13.972784537242
13	781	184	13.890386846401
13	788	185	13.976720529723
13	796	186	13.881957506698
13	803	187	13.91544357023
13	810	188	13.995900200249
13	818	189	13.934949800337
13	825	190	13.977231836691
13	832	191	13.908700234552
13	840	192	13.884359111569
13	848	193	13.960923778582
13	856	194	13.980973287276
13	864	195	13.990153137404
13	872	196	13.998212221907
13	879	197	13.951556153179
13	887	198	13.963887268738
13	895	199	13.900766122951
13	902	200	13.916043556912
14	9	6	1.7932460927567
14	10	7	1.9587017235276
14	11	8	1.7806746143266
14	13	9	1.8842620940111
14	14	10	1.9413380167005
14	15	11	0.5583961215709
14	17	12	-0.073857417434921
14	19	13	0.0092065779981212
14	20	14	0.10214026641101
14	22	15	-0.096765000070445
14	24	16	-0.0036033386224883
14	25	17	0.039975998615846
14	27	18	-0.036115438612178
14	29	19	0.074191348995083
14	30	20	-0.018364551486448
14	32	21	-0.84955461610103
14	34	22	-1.1580047743662
14	36	23	-4.4608324981877
14	38	24	0.38092674279862
14	40	25	1.7156944106473
14	42	26	2.0360211738362
14	44	27	1.9703013633797
14	46	28	0.39196811840698
14	48	29	-0.054819778876846
14	50	30	0.010270397982096
14	52	31	0.056614504742901
14	54	32	-0.029954661100637
14	57	33	-0.016613695521373
14	59	34	-0.030163104203529
14	61	35	0.018933158169965
14	64	36	-0.029659791311714
14	66	37	0.091685234303586
14	68	38	-0.045763628156855
14	71	39	-0.039857979963999
14	73	40	0.065247988859191
14	75	41	-0.08489584519295
14	78	42	-0.0022564603248618
14	81	43	0.045091817758511
14	83	44	-0.0043246553349299
14	86	45	0.029991914208512
14	89	46	0.015533079409506
14	91	47	-0.0495849183877
14	94	48	0.0027827199501917
14	97	49	-0.024452327373437
14	99	50	0.067736270520836
14	102	51	-0.053276539789513
14	105	52	0.063070073074195
14	108	53	-0.0090693579427903
14	111	54	0.024193826443517
14	114	55	-0.037865431425162
14	117	56	-0.058954789221753
14	120	57	0.065368110591081
14	123	58	-0.024500538792926
14	126	59	0.048295230567454
14	129	60	-0.027506586005911
14	132	61	-3.7945064249811e-05
14	135	62	-0.040341942564119
14	139	63	0.08445247764932
14	142	64	-0.065610413609539
14	145	65	0.021565600365866
14	149	66	0.044117230484263
14	152	67	0.0005279496987356
14	155	68	-0.11307939741528
14	159	69	-0.0042316347081215
14	162	70	0.0057685952470639
14	165	71	0.091050112515221
14	169	72	-0.0083427305007344
14	173	73	-0.044974922926631
14	177	74	-2.4223409987658
14	181	75	-3.1945342397763
14	185	76	-2.7327313093324
14	188	77	-2.2546007719484
14	192	78	-1.6945283495614
14	196	79	-0.91948220483881
14	199	80	-0.44483048776941
14	203	81	-0.16663278609925
14	207	82	-0.061852424419235
14	211	83	-0.021296813365776
14	215	84	-0.0080438319320418
14	219	85	-0.0029433929814467
14	223	86	-0.0009893931416182
14	227	87	-0.00036013875637216
14	231	88	-0.00012829002510075
14	235	89	-4.7779975510849e-05
14	239	90	-2.5992050168431e-05
14	243	91	0
14	247	92	0
14	252	93	0
14	256	94	0
14	260	95	0
14	265	96	0
14	269	97	0
14	273	98	0
14	278	99	0
14	282	100	0
14	286	101	0
14	291	102	0
14	296	103	0
14	301	104	0
14	306	105	0
14	311	106	0
14	315	107	0
14	320	108	0
14	325	109	0
14	329	110	0
14	334	111	0
14	339	112	0
14	344	113	0
14	349	114	0
14	354	115	0
14	359	116	0
14	364	117	0
14	369	118	0
14	374	119	0
14	379	120	0
14	384	121	0
14	389	122	0
14	395	123	0
14	401	124	1.0454558987028
14	406	125	1.9413612366669
14	412	126	1.8220368141244
14	417	127	2.0081054980612
14	422	128	1.9518624456701
14	428	129	1.8303671085183
14	433	130	2.0315273079113
14	438	131	1.2806393419761
14	444	132	0.047740650703199
14	450	133	0.026573255173863
14	456	134	-0.072883409399074
14	462	135	-0.03210226023104
14	468	136	0.040968228552956
14	473	137	-0.017607946088537
14	479	138	0.024355108910239
14	485	139	0.018833703720011
14	490	140	0.0098656048648991
14	496	141	-0.084429220608435
14	502	142	0.1161646957742
14	508	143	-0.026468190946616
14	514	144	0.016224144210573
14	520	145	0.017954750047066
14	526	146	-0.086752803607379
14	532	147	0.045634120837786
14	538	148	-0.038706488069147
14	544	149	0.048007548274473
14	550	150	0.0042608453403226
14	556	151	-0.066847989798989
14	562	152	0.078394003864377
14	569	153	-0.0043714303267191
14	576	154	-0.074117545965127
14	582	155	0.096223014865537
14	589	156	-0.016548605826683
14	595	157	-0.077465037947986
14	601	158	0.0064275499852364
14	608	159	-0.0090893771266565
14	614	160	-0.030336456936784
14	620	161	0.11574898932362
14	627	162	-0.023424426829443
14	634	163	-0.022742380010895
14	641	164	0.039277818629053
14	648	165	-0.0022900215862336
14	655	166	-0.023574351174757
14	661	167	-0.059759290162473
14	668	168	-0.0011746940901496
14	675	169	0.014468565683346
14	681	170	0.0027157383551817
14	688	171	-0.028823833672796
14	695	172	0.017632111532148
14	702	173	-0.026961142108776
14	709	174	0.022797123109923
14	716	175	0.0799381512939
14	723	176	-0.059468666124157
14	730	177	0.067985334468538
14	737	178	-0.081778387010562
14	744	179	0.070096094980835
14	751	180	-0.059579664238262
14	758	181	0.060416161131579
14	765	182	-0.0939575873781
14	773	183	0.093986779244151
14	781	184	-0.082397690841463
14	788	185	0.086333683321717
14	796	186	-0.094763023024424
14	803	187	0.033486063531599
14	810	188	0.080456630019471
14	818	189	-0.060950399911963
14	825	190	0.042282036354299
14	832	191	-0.068531602139119
14	840	192	-0.024341122983023
14	848	193	0.076564667013008
14	856	194	0.020049508693628
14	864	195	0.0091798501275484
14	872	196	0.0080590845039108
14	879	197	-0.046656068728771
14	887	198	0.01233111555921
14	895	199	-0.063121145786718
14	902	200	0.015277433961165
15	9	6	3.9274001426868
15	10	7	5.2041356246368
15	11	8	5.7574507674447
15	13	9	7.0006276784153
15	14	10	8.2432295261252
15	15	11	3.9110016848773
15	17	12	1.7792042638201
15	19	13	2.0579365757541
15	20	14	2.3818636967155
15	22	15	1.7037407999188
15	24	16	2.0152488537881
15	25	17	2.1655550639215
15	27	18	1.906797412239
15	29	19	2.2849654495652
15	30	20	1.9716653983805
15	32	21	0.973
15	34	22	0.973
15	36	23	0.973
15	38	24	2.2554772362628
15	40	25	5.6120472675651
15	42	26	7.5119842129131
15	44	27	8.4455276517466
15	46	28	3.3560730035355
15	48	29	1.8466200733259
15	50	30	2.0660268329645
15	52	31	2.2281549844786
15	54	32	1.9335288120447
15	57	33	1.9767670407741
15	59	34	1.9283950769156
15	61	35	2.0949799016024
15	64	36	1.9290667558988
15	66	37	2.3468857079218
15	68	38	1.8793040227889
15	71	39	1.8954681876561
15	73	40	2.2553467174174
15	75	41	1.7429567241042
15	78	42	2.0192482635441
15	81	43	2.1827359052182
15	83	44	2.0164367628106
15	86	45	2.1348602115454
15	89	46	2.0878872407227
15	91	47	1.8642059318509
15	94	48	2.0401536442479
15	97	49	1.9464315106901
15	99	50	2.2632042711189
15	102	51	1.851180617826
15	105	52	2.2486511283506
15	108	53	2.0047870143605
15	111	54	2.1193583924862
15	114	55	1.9065956504161
15	117	56	1.8305118457369
15	120	57	2.2544630998412
15	123	58	1.9497933768092
15	126	59	2.199742909699
15	129	60	1.9416842431598
15	132	61	2.0340583936544
15	135	62	1.8947902862501
15	139	63	2.3236156337703
15	142	64	1.8116807487081
15	145	65	2.1067187558746
15	149	66	2.1875465210812
15	152	67	2.0405446651404
15	155	68	1.6487905152147
15	159	69	2.0126291187762
15	162	70	2.0466796925005
15	165	71	2.3433989621326
15	169	72	2.0077208397811
15	173	73	1.8802787050508
15	177	74	0.973
15	181	75	0.973
15	185	76	0.973
15	188	77	0.973
15	192	78	0.973
15	196	79	0.973
15	199	80	0.973
15	203	81	0.973
15	207	82	1.1111278658488
15	211	83	1.1105405169147
15	215	84	1.1102081243603
15	219	85	1.1100737482573
15	223	86	1.1100269865137
15	227	87	1.1100097299357
15	231	88	1.1100035564816
15	235	89	1.1100012535572
15	239	90	0.973
15	243	91	0.973
15	247	92	0.973
15	252	93	0.973
15	256	94	0.973
15	260	95	0.973
15	265	96	0.973
15	269	97	0.973
15	273	98	0.973
15	278	99	0.973
15	282	100	0.973
15	286	101	0.973
15	291	102	0.973
15	296	103	0.973
15	301	104	0.973
15	306	105	0.973
15	311	106	0.973
15	315	107	0.973
15	320	108	0.973
15	325	109	0.973
15	329	110	0.973
15	334	111	0.973
15	339	112	0.973
15	344	113	0.973
15	349	114	0.973
15	354	115	0.973
15	359	116	0.973
15	364	117	0.973
15	369	118	0.973
15	374	119	0.973
15	379	120	0.973
15	384	121	0.973
15	389	122	0.973
15	395	123	0.973
15	401	124	1.4239460569433
15	406	125	2.6539818843905
15	412	126	3.4638721705184
15	417	127	4.7672057470829
15	422	128	5.7201385576267
15	428	129	6.4068024188927
15	433	130	8.0894274787189
15	438	131	6.3233052864783
15	444	132	2.1952654366489
15	450	133	2.1269451191026
15	456	134	1.7855558300948
15	462	135	1.9192758908256
15	468	136	2.1682894028507
15	473	137	1.9700401564216
15	479	138	2.1132780923625
15	485	139	2.0967521261933
15	490	140	2.0676394119274
15	496	141	1.7435781492056
15	502	142	2.4293300508524
15	508	143	1.945929812323
15	514	144	2.0913101916029
15	520	145	2.0990577040159
15	526	146	1.7388095837429
15	532	147	2.1877632083839
15	538	148	1.9005145370032
15	544	149	2.1968042961102
15	550	150	2.0500150684712
15	556	151	1.8048797568188
15	562	152	2.3009863061562
15	569	153	2.0216810197987
15	576	154	1.780515749493
15	582	155	2.3632863193112
15	589	156	1.9812120211058
15	595	157	1.7694840250872
15	601	158	2.0512663796081
15	608	159	1.9983405927992
15	614	160	1.9242939949574
15	620	161	2.4276901516778
15	627	162	1.9562892484012
15	634	163	1.9563851254971
15	641	164	2.1691450530814
15	648	165	2.0288611293971
15	655	166	1.9548839267273
15	661	167	1.8279616767825
15	668	168	2.0240172755128
15	675	169	2.0779186428145
15	681	170	2.0388041841175
15	688	171	1.9303371884883
15	695	172	2.0876231595316
15	702	173	1.9356815008423
15	709	174	2.1044779476447
15	716	175	2.3055260701722
15	723	176	1.8307829891951
15	730	177	2.2662806746104
15	737	178	1.7548306755801
15	744	179	2.2720005806138
15	751	180	1.8301239210578
15	758	181	2.2395037836745
15	765	182	1.7122057007679
15	773	183	2.3525542747309
15	781	184	1.7518192228661
15	788	185	2.3272677192516
15	796	186	1.7097606649494
15	803	187	2.142502923052
15	810	188	2.3098084158344
15	818	189	1.8275014461408
15	825	190	2.1789421655913
15	832	191	1.7997986172212
15	840	192	1.9455908254829
15	848	193	2.292454104746
15	856	194	2.1044528007596
15	864	195	2.0687891702861
15	872	196	2.0658521856008
15	879	197	1.8770155318993
15	887	198	2.0766468886886
15	895	199	1.8172472771657
15	902	200	2.0815014160188
18	10	7	2414.8848622198
18	11	8	2412.0691307599
18	13	9	2407.3819784434
18	14	10	2402.4639103656
18	15	11	2396.2016479742
18	17	12	2388.5021761758
18	19	13	2379.5347220144
18	20	14	2369.7521497252
18	22	15	2359.9648396304
18	24	16	2350.1637192596
18	25	17	2340.717056727
18	27	18	2334.4889366638
18	29	19	2338.0188398167
18	30	20	2348.6970945761
18	32	21	2359.0578910074
18	34	22	2372.1753142256
18	36	23	2385.9847009928
18	38	24	2399.0560799135
18	40	25	2411.469456295
18	42	26	2420.8240344936
18	44	27	2428.2511095385
18	46	28	2431.5096723901
18	48	29	2433.2168502312
18	50	30	2435.2011956087
18	52	31	2437.29147981
18	54	32	2438.672857787
18	57	33	2439.5458305131
18	59	34	2440.5569901068
18	61	35	2441.5662171456
18	64	36	2442.5764760413
18	66	37	2443.5864360537
18	68	38	2444.5969193554
18	71	39	2445.6077267987
18	73	40	2446.6171177449
18	75	41	2447.6285385494
18	78	42	2448.6389437378
18	81	43	2449.6489775468
18	83	44	2450.659299592
18	86	45	2449.5461587089
18	89	46	2448.4337074455
18	91	47	2447.3207898499
18	94	48	2446.207873206
18	97	49	2445.0940501215
18	99	50	2443.9833638043
18	102	51	2442.8694501355
18	105	52	2441.7571938549
18	108	53	2440.6460889142
18	111	54	2439.6827321647
18	114	55	2438.7413750661
18	117	56	2437.8192072627
18	120	57	2432.6325302194
18	123	58	2422.106233715
18	126	59	2408.9688818519
18	129	60	2395.0345910933
18	132	61	2381.126587261
18	135	62	2367.2179763186
18	139	63	2353.2984252305
18	142	64	2339.3434596916
18	145	65	2325.3984135713
18	149	66	2311.4586331139
18	152	67	2297.5367558505
18	155	68	2283.6070172336
18	159	69	2269.6839314153
18	162	70	2255.7643697551
18	165	71	2241.8757564033
18	169	72	2228.0688688542
18	173	73	2214.3596332766
18	177	74	2201.1714023183
18	181	75	2187.9686336372
18	185	76	2175.8734212776
18	188	77	2166.9060475181
18	192	78	2160.0570473718
18	196	79	2155.1946690262
18	199	80	2152.0845165758
18	203	81	2150.3460835881
18	207	82	2149.5044575131
18	211	83	2149.1558657689
18	215	84	2149.0223896184
18	219	85	2148.9725696122
18	223	86	2148.9540163553
18	227	87	2148.9470391435
18	231	88	2148.9443907537
18	235	89	2148.9434071536
18	239	90	2148.943040959
18	243	91	2148.9429074413
18	247	92	2148.9428596173
18	252	93	2148.9428423679
18	256	94	2148.9428405389
18	260	95	2148.9428405389
18	265	96	2148.9428405389
18	269	97	2148.9428405389
18	273	98	2148.9428405389
18	278	99	2148.9428405389
18	282	100	2148.9428405389
18	286	101	2148.9428405389
18	291	102	2148.9428405389
18	296	103	2148.9428405389
18	301	104	2148.9428405389
18	306	105	2148.9428405389
18	311	106	2148.9428405389
18	315	107	2148.9428405389
[...]
403	737	178	2379.4027519781
403	744	179	2371.1976413572
403	751	180	2363.4175496766
403	758	181	2355.9256465752
403	765	182	2348.6707768514
403	773	183	2341.7539217091
403	781	184	2335.6428353082
403	788	185	2333.9215410751
403	796	186	2337.9217366464
403	803	187	2345.3975883296
403	810	188	2352.5176416963
403	818	189	2359.5855875594
403	825	190	2368.5048689297
403	832	191	2377.866638929
403	840	192	2387.2978515076
403	848	193	2396.7330736256
403	856	194	2405.9714486548
403	864	195	2413.7787447588
403	872	196	2421.8343377783
403	879	197	2429.086576656
403	887	198	2431.6473987991
403	895	199	2433.3609565186
403	902	200	2435.2033945536
404	695	172	1578.4567106115
404	702	173	1579.5663838368
404	709	174	1581.6213211548
404	716	175	1586.7212988809
404	723	176	1593.1817847406
404	730	177	1600.9791289521
404	737	178	1609.6696703974
404	744	179	1617.9803170767
404	751	180	1625.8604781218
404	758	181	1633.4487438379
404	765	182	1640.7969273981
404	773	183	1648.1491819369
404	781	184	1655.9723236719
404	788	185	1665.5415014364
404	796	186	1673.7662134431
404	803	187	1679.8201536043
404	810	188	1686.2411960671
404	818	189	1692.6152466787
404	825	190	1695.0952993594
404	832	191	1696.4712471422
404	840	192	1697.5744966213
404	848	193	1698.4666598802
404	856	194	1699.3402099321
404	864	195	1700.0784419151
404	872	196	1700.8401520289
404	879	197	1701.8111501895
404	887	198	1710.6633912502
404	895	199	1721.9394723447
404	902	200	1734.063651449
405	702	173	4.1722982974219
405	709	174	6.050894032536
405	716	175	8.0941174606475
405	723	176	9.9043262539114
405	730	177	11.739932488888
405	737	178	12.063107383124
405	744	179	11.451604581323
405	751	180	10.807792567365
405	758	181	10.456727610217
405	765	182	10.177739571168
405	773	183	10.027778008407
405	781	184	9.8660203747192
405	788	185	9.7325289176456
405	796	186	9.6895184191502
405	803	187	9.5708557140312
405	810	188	9.5956894040654
405	818	189	9.4541393154406
405	825	190	9.5219343935392
405	832	191	9.4845061893479
405	840	192	9.4308404477271
405	848	193	9.5349710994417
405	856	194	8.513128069389
405	864	195	8.2050404684125
405	872	196	6.7199954533496
405	879	197	8.4244473397349
405	887	198	10.376423691058
405	895	199	12.306605101019
405	902	200	12.205529171198
406	709	174	1.8785957351141
406	716	175	2.0432234281115
406	723	176	1.8102087932639
406	730	177	1.835606234977
406	737	178	0.32317489423551
406	744	179	-0.61150280180069
406	751	180	-0.643812013958
406	758	181	-0.35106495714859
406	765	182	-0.27898803904832
406	773	183	-0.14996156276111
406	781	184	-0.16175763368804
406	788	185	-0.13349145707354
406	796	186	-0.043010498495448
406	803	187	-0.11866270511896
406	810	188	0.024833690034201
406	818	189	-0.14155008862477
406	825	190	0.067795078098566
406	832	191	-0.037428204191331
406	840	192	-0.053665741620767
406	848	193	0.10413065171455
406	856	194	-1.0218430300526
406	864	195	-0.30808760097649
406	872	196	-1.4850450150629
406	879	197	1.7044518863852
406	887	198	1.9519763513235
406	895	199	1.9301814099611
406	902	200	-0.10107592982133
407	709	174	4.1618523283488
407	716	175	5.5351270590395
407	723	176	5.9984019279033
407	730	177	7.0193339422111
407	737	178	2.7936236636263
407	744	179	0.973
407	751	180	0.973
407	758	181	0.973
407	765	182	0.973
407	773	183	1.3244795779926
407	781	184	1.2900392714646
407	788	185	1.3515504879559
407	796	186	1.561024062663
407	803	187	1.3789823116108
407	810	188	1.7119463571957
407	818	189	1.3216150467812
407	825	190	1.8046665478142
407	832	191	1.5607969115149
407	840	192	1.5204566136091
407	848	193	1.8893329982686
407	856	194	0.973
407	864	195	0.973
407	872	196	0.973
407	879	197	5.032162829505
407	887	198	6.5951098651432
407	895	199	7.6005617997539
407	902	200	1.5694507723734
410	716	175	2414.8887947192
410	723	176	2411.839309744
410	730	177	2407.1483131133
410	737	178	2402.1055246805
410	744	179	2395.7036317975
410	751	180	2387.9536180414
410	758	181	2378.9356486216
410	765	182	2369.7263681659
410	773	183	2360.5372305254
410	781	184	2351.4839329404
410	788	185	2342.9731922124
410	796	186	2335.9011286141
410	803	187	2333.8668947089
410	810	188	2339.2133343287
410	818	189	2347.1266310998
410	825	190	2354.6101810113
410	832	191	2362.2337839626
410	840	192	2371.9220789619
410	848	193	2381.5331480468
410	856	194	2391.0495093261
410	864	195	2399.4641958358
410	872	196	2407.9768118039
410	879	197	2415.6391657201
410	887	198	2423.1758041829
410	895	199	2430.2576090321
410	902	200	2431.9033756366
411	716	175	1578.4462487241
411	723	176	1579.5660036923
411	730	177	1581.567239346
411	737	178	1586.6748893065
411	744	179	1593.1591248373
411	751	180	1601.0088210888
411	758	181	1610.1427817466
411	765	182	1619.4705141289
411	773	183	1628.7778446134
411	781	184	1637.9475878356
411	788	185	1646.5883259233
411	796	186	1655.6416680394
411	803	187	1666.3156582909
411	810	188	1674.8092562454
411	818	189	1681.3794476818
411	825	190	1688.128300434
411	832	191	1694.1579702115
411	840	192	1695.6060643354
411	848	193	1696.907643551
411	856	194	1697.9292409215
411	864	195	1698.7249057228
411	872	196	1699.5298304092
411	879	197	1700.2543571405
411	887	198	1700.929400688
411	895	199	1702.9323976086
411	902	200	1712.3478489984
412	723	176	4.1406812462363
412	730	177	6.0654450932554
412	737	178	8.1474102431548
412	744	179	9.9105920719601
412	751	180	11.990486721428
412	758	181	13.100831135974
412	765	182	13.077337078374
412	773	183	13.110146855266
412	781	184	12.647587796033
412	788	185	11.861903611965
412	796	186	11.251897054644
412	803	187	10.762691580144
412	810	188	10.395253332004
412	818	189	10.160463306642
412	825	190	9.9540118201559
412	832	191	9.8153674444805
412	840	192	9.8322627851496
412	848	193	9.6675917660903
412	856	194	9.1860302827041
412	864	195	8.538748745271
412	872	196	7.8361588239862
412	879	197	8.2769016329682
412	887	198	6.4128719780114
412	895	199	8.5128838561251
412	902	200	10.437862810289
413	730	177	1.9247638470191
413	737	178	2.0819651498995
413	744	179	1.7631818288052
413	751	180	2.0798946494679
413	758	181	1.1103444145459
413	765	182	-0.023494057599454
413	773	183	0.032809776891954
413	781	184	-0.46255905923375
413	788	185	-0.78568418406799
413	796	186	-0.6100065573202
413	803	187	-0.48920547450007
413	810	188	-0.3674382481402
413	818	189	-0.23479002536233
413	825	190	-0.20645148648593
413	832	191	-0.13864437567543
413	840	192	0.016895340669127
413	848	193	-0.16467101905931
413	856	194	-0.48156148338618
413	864	195	-0.64728153743317
413	872	196	-0.70258992128472
413	879	197	0.440742808982
413	887	198	-1.8640296549568
413	895	199	2.1000118781137
413	902	200	1.9249789541634
414	730	177	4.2367774106375
414	737	178	5.6409845367817
414	744	179	5.889286488747
414	751	180	7.857959183656
414	758	181	5.455390510904
414	765	182	1.8734061273251
414	773	183	2.0542565448375
414	781	184	0.973
414	788	185	0.973
414	796	186	0.973
414	803	187	0.973
414	810	188	0.973
414	818	189	0.973
414	825	190	0.973
414	832	191	1.3428854896751
414	840	192	1.7121509449673
414	848	193	1.276168789136
414	856	194	0.973
414	864	195	0.973
414	872	196	0.973
414	879	197	2.4408233658062
414	887	198	0.973
414	895	199	5.8860469519308
414	902	200	6.5609078198076
417	737	178	2414.8411606834
417	744	179	2411.8212945821
417	751	180	2407.2340216642
417	758	181	2402.4078865714
417	765	182	2396.1670496335
417	773	183	2388.4829322497
417	781	184	2379.706800545
417	788	185	2370.8227059451
417	796	186	2361.9707496609
417	803	187	2353.1122649581
417	810	188	2344.2440478104
417	818	189	2336.3270312872
417	825	190	2333.8656889133
417	832	191	2341.5537264398
417	840	192	2351.0957992487
417	848	193	2360.1357969744
417	856	194	2371.1998982439
417	864	195	2381.4100486664
417	872	196	2391.22411761
417	879	197	2400.0390379536
417	887	198	2408.6151909702
417	895	199	2416.695666706
417	902	200	2424.0129334686
418	737	178	1578.4637396941
418	744	179	1579.5726187658
418	751	180	1581.4804283911
418	758	181	1586.3686383655
418	765	182	1592.6897464124
418	773	183	1600.4726987174
418	781	184	1609.3617110867
418	788	185	1618.3600749951
418	796	186	1627.3258872181
418	803	187	1636.2983118296
418	810	188	1645.2805940667
418	818	189	1655.0964463288
418	825	190	1667.2697982499
418	832	191	1676.6992636202
418	840	192	1684.9589429349
418	848	193	1693.1114393109
418	856	194	1695.4981211266
418	864	195	1696.8929919777
418	872	196	1697.9457513001
418	879	197	1698.779260884
418	887	198	1699.5901934225
418	895	199	1700.3542563636
418	902	200	1700.9778758809
419	744	179	4.0301020879068
419	751	180	5.7866659510231
419	758	181	7.8106567098528
419	765	182	9.7852737790208
419	773	183	11.771192707108
419	781	184	12.646955651697
419	788	185	12.691492472105
419	796	186	12.65436932687
419	803	187	12.633675903024
419	810	188	12.599634996388
419	818	189	12.659472650269
419	825	190	12.658417382807
419	832	191	12.63769881008
419	840	192	12.619262327083
419	848	193	11.837715175372
419	856	194	11.233216247756
419	864	195	9.9345041922402
419	872	196	9.3495239572453
419	879	197	8.9684797011565
419	887	198	7.501503034058
419	895	199	8.5999985581018
419	902	200	6.5814874873665
420	751	180	1.7565638631163
420	758	181	2.0239907588297
420	765	182	1.974617069168
420	773	183	1.9859189280868
420	781	184	0.87576294458965
420	788	185	0.044536820407956
420	796	186	-0.037123145235237
420	803	187	-0.020693423845804
420	810	188	-0.034040906636511
420	818	189	0.059837653881406
420	825	190	-0.0010552674625082
420	832	191	-0.020718572726473
420	840	192	-0.01843648299673
420	848	193	-0.78154715171109
420	856	194	-0.60449892761642
420	864	195	-1.2987120555156
420	872	196	-0.58498023499497
420	879	197	-0.38104425608877
420	887	198	-1.4669766670985
420	895	199	1.0984955240438
420	902	200	-2.0185110707353
421	751	180	3.8567292070852
421	758	181	5.3407005675328
421	765	182	6.3252391424865
421	773	183	7.4622837645495
421	781	184	4.5762074728406
421	788	185	2.0473074295133
421	796	186	1.7944271933776
421	803	187	1.8427210667168
421	810	188	1.7992172049887
421	818	189	2.0906751831929
421	825	190	1.9047974625166
421	832	191	1.8429964782652
421	840	192	1.8483247028866
421	848	193	0.973
421	856	194	0.973
421	864	195	0.973
421	872	196	0.973
421	879	197	0.973
421	887	198	0.973
421	895	199	3.8603634831942
421	902	200	0.973
424	758	181	2414.8779380508
424	765	182	2411.9970329538
424	773	183	2407.4862191244
424	781	184	2402.5944783367
424	788	185	2396.3107487656
424	796	186	2388.7262865513
424	803	187	2380.8504155858
424	810	188	2372.9843149764
424	818	189	2365.0945059197
424	825	190	2357.2114851256
424	832	191	2349.3247325944
424	840	192	2341.6477208548
424	848	193	2335.177532454
424	856	194	2334.0491336513
424	864	195	2341.3449303098
424	872	196	2349.8577622982
424	879	197	2358.1854712832
424	887	198	2368.3077342936
424	895	199	2379.4005401043
424	902	200	2390.5462740177
425	758	181	1578.4502352364
425	765	182	1579.5080885524
425	773	183	1581.2249871083
425	781	184	1586.1796466131
425	788	185	1592.5441989889
425	796	186	1600.2262143353
425	803	187	1608.2033866011
425	810	188	1616.1706628418
425	818	189	1624.1619524732
425	825	190	1632.1463665301
425	832	191	1640.1345603233
425	840	192	1648.2851355597
425	848	193	1657.3384426096
425	856	194	1668.4333620165
425	864	195	1676.5306481887
425	872	196	1683.8424502034
425	879	197	1691.3525867518
425	887	198	1695.0658339569
425	895	199	1696.6538156131
425	902	200	1697.8816566626
426	765	182	3.8568705508995
426	773	183	5.7107599186359
426	781	184	7.8633960219004
426	788	185	9.8373710972068
426	796	186	11.236298415992
426	803	187	11.218727136085
426	810	188	11.165747769568
426	818	189	11.275574481318
426	825	190	11.176221124339
426	832	191	11.209788830762
426	840	192	11.23493280611
426	848	193	11.244871398192
426	856	194	11.147921455172
426	864	195	11.14770664535
426	872	196	11.229630027414
426	879	197	11.168538895028
426	887	198	11.160851498912
426	895	199	11.20410871885
426	902	200	11.150661244951
427	773	183	1.8538893677364
427	781	184	2.1526361032645
427	788	185	1.9739750753064
427	796	186	1.3989273187849
427	803	187	-0.017571279907132
427	810	188	-0.052979366516229
427	818	189	0.10982671174919
427	825	190	-0.099353356978391
427	832	191	0.033567706423346
427	840	192	0.025143975347746
427	848	193	0.0099385920818893
427	856	194	-0.096949943020007
427	864	195	-0.00021480982191946
427	872	196	0.081923382063396
427	879	197	-0.06109113238519
427	887	198	-0.0076873961160882
427	895	199	0.043257219938095
427	902	200	-0.053447473898995
428	773	183	3.954187267393
428	781	184	5.6136607088567
428	788	185	6.3524123290938
428	796	186	5.5713130043435
428	803	187	1.7341214897485
428	810	188	1.6346696674767
428	818	189	2.0848090125448
428	825	190	1.5104964706997
428	832	191	1.8715716279651
428	840	192	1.8510573306451
428	848	193	1.8107381632415
428	856	194	1.5152888775727
428	864	195	1.7751644837531
428	872	196	2.0042484083265
428	879	197	1.6130313624749
428	887	198	1.7561516530675
428	895	199	1.8972174891183
428	902	200	1.6323560080669
431	781	184	2414.8788141906
431	788	185	2412.0652779912
431	796	186	2407.551033954
431	803	187	2402.8081792406
431	810	188	2396.7116066761
431	818	189	2389.3548582763
431	825	190	2380.744486539
431	832	191	2371.7330126754
431	840	192	2362.7249511016
431	848	193	2353.713147666
431	856	194	2344.6833110899
431	864	195	2336.5824422954
431	872	196	2333.8309977797
431	879	197	2341.5042295394
431	887	198	2351.0569959413
431	895	199	2360.1778278147
431	902	200	2371.7698126348
432	781	184	1578.4499135222
432	788	185	1579.4830293311
432	796	186	1581.1593386149
432	803	187	1585.9631970385
432	810	188	1592.13818515
432	818	189	1599.5895577734
432	825	190	1608.3106781319
432	832	191	1617.4380596867
432	840	192	1626.5619850615
432	848	193	1635.6897004275
432	856	194	1644.8356808797
432	864	195	1654.7694804864
432	872	196	1667.0497573456
432	879	197	1676.659291896
432	887	198	1684.9239491401
432	895	199	1693.1493437756
432	902	200	1695.5833053291
433	788	185	3.7541588574195
433	796	186	5.7118946708985
433	803	187	7.5933595718689
433	810	188	9.6098677490083
433	818	189	11.185632338146
433	825	190	12.828064661029
433	832	191	12.858428171399
433	840	192	12.773671595888
433	848	193	12.883004034611
433	856	194	12.869395815994
433	864	195	12.818268577999
433	872	196	12.806688598868
433	879	197	12.814241240225
433	887	198	12.428568390577
433	895	199	12.193319340593
433	902	200	11.921261282808
434	796	186	1.9577358134789
434	803	187	1.8814649009705
434	810	188	2.0165081771393
434	818	189	1.5757645891374
434	825	190	1.6424323228832
434	832	191	0.030363510369789
434	840	192	-0.084756575510838
434	848	193	0.10933243872365
434	856	194	-0.013608218617739
434	864	195	-0.051127237994223
434	872	196	-0.01157997913193
434	879	197	0.0075526413577602
434	887	198	-0.38567284964841
434	895	199	-0.23524904998366
434	902	200	-0.27205805778502
435	796	186	4.0977108093026
435	803	187	4.9598296968464
435	810	188	6.3257520636553
435	818	189	6.0267292681764
435	825	190	7.0015194515765
435	832	191	2.0207811610832
435	840	192	1.657822167393
435	848	193	2.2684578372911
435	856	194	1.885514090343
435	864	195	1.7649741148387
435	872	196	1.8860904866543
435	879	197	1.9458632185771
435	887	198	0.973
435	895	199	1.174375813081
435	902	200	0.973
438	803	187	2414.8585700947
438	810	188	2411.9969703056
438	818	189	2407.3590078291
438	825	190	2402.5038493358
438	832	191	2396.2110340785
438	840	192	2388.5356686392
438	848	193	2379.5098477243
438	856	194	2370.1418326314
438	864	195	2360.7787300163
438	872	196	2351.4193250611
438	879	197	2342.1844435789
438	887	198	2334.9812863778
438	895	199	2335.3851237283
438	902	200	2345.5761305641
439	803	187	1578.4573470484
439	810	188	1579.508111557
439	818	189	1581.3538346253
439	825	190	1586.271441306
439	832	191	1592.6451962292
439	840	192	1600.4192840196
439	848	193	1609.5611971607
439	856	194	1619.0497058611
439	864	195	1628.533238899
439	872	196	1638.0130267162
439	879	197	1647.5980469361
439	887	198	1658.5203126362
439	895	199	1671.4201332461
439	902	200	1679.9811674627
440	810	188	3.8585680350128
440	818	189	5.8516531472004
440	825	190	7.8973758989761
440	832	191	9.8557514331911
440	840	192	11.942946414342
440	848	193	13.281673413053
440	856	194	13.354737228594
440	864	195	13.387590942945
440	872	196	13.339860889638
440	879	197	13.271152209534
440	887	198	13.34358413055
440	895	199	13.36102348745
440	902	200	13.298880631287
441	818	189	1.9930851121875
441	825	190	2.0457227517758
441	832	191	1.958375534215
441	840	192	2.0871949811513
441	848	193	1.3387269987105
441	856	194	0.073063815541101
441	864	195	0.032853714351075
441	872	196	-0.047730053307022
441	879	197	-0.068708680104464
441	887	198	0.072431921015959
441	895	199	0.017439356900287
441	902	200	-0.062142856162973
442	818	189	4.2215389405203
442	825	190	5.4300282473119
442	832	191	6.3254843183846
442	840	192	7.8509615055178
442	848	193	6.2522535986235
442	856	194	2.2094162023778
442	864	195	2.0834731771849
442	872	196	1.8193611538366
442	879	197	1.7463689745143
442	887	198	2.2060989357288
442	895	199	2.0310298725026
442	902	200	1.7696473701874
445	825	190	2414.8925589694
445	832	191	2411.9627857993
445	840	192	2407.3062772232
445	848	193	2402.3654572419
445	856	194	2395.9558072921
445	864	195	2388.1006089912
445	872	196	2378.978760769
445	879	197	2369.4012116214
445	887	198	2359.8513236765
445	895	199	2350.290784059
445	902	200	2341.0180881016
446	825	190	1578.444866511
446	832	191	1579.5206639292
446	840	192	1581.4072434641
446	848	193	1586.4116134318
446	856	194	1592.9037058027
446	864	195	1600.8599395072
446	872	196	1610.0991150811
446	879	197	1619.7998529123
446	887	198	1629.4725737572
446	895	199	1639.1560832784
446	902	200	1649.0911634816
447	832	191	3.9973312404595
447	840	192	5.9655132869614
447	848	193	8.0251987055532
447	856	194	10.022291549822
447	864	195	12.077283199195
447	872	196	13.597041808876
447	879	197	13.66531432328
447	887	198	13.566644394974
447	895	199	13.582692384666
447	902	200	13.596724563934
448	840	192	1.9681820465019
448	848	193	2.0596854185918
448	856	194	1.9970928442688
448	864	195	2.054991649373
448	872	196	1.519758609681
448	879	197	0.068272514403798
448	887	198	-0.098669928305316
448	895	199	0.016047989691142
448	902	200	0.014032179268542
449	840	192	4.2470211938026
449	848	193	5.5284636503922
449	856	194	6.5101960467323
449	864	195	7.8366535299921
449	872	196	6.978222049931
449	879	197	2.2297984887385
449	887	198	1.6725169632209
449	895	199	2.0492499954432
449	902	200	2.0440939392049
452	848	193	2414.8450449788
452	856	194	2411.8481639778
452	864	195	2407.1918824697
452	872	196	2402.1068140625
452	879	197	2395.6393894139
452	887	198	2387.8540473643
452	895	199	2378.7425860802
452	902	200	2368.9560980042
453	848	193	1578.4623134006
453	856	194	1579.5627524639
453	864	195	1581.5231095897
453	872	196	1586.6735833399
453	879	197	1593.2241935218
453	887	198	1601.1096724672
453	895	199	1610.3383275038
453	902	200	1620.2506916858
454	856	194	4.0768216341553
454	864	195	6.1146311434992
454	872	196	8.1238958659168
454	879	197	10.07226857951
454	887	198	11.975930302181
454	895	199	13.751272715454
454	902	200	13.880561356815
455	864	195	2.0378095093439
455	872	196	2.0092647224176
455	879	197	1.9483727135928
455	887	198	1.9036617226712
455	895	199	1.7753424132732
455	902	200	0.12928864136057
456	864	195	4.4290585903548
456	872	196	5.4852832676338
456	879	197	6.4197949691156
456	887	198	7.340737888557
456	895	199	7.8971625527147
456	902	200	2.4591516963765
459	872	196	2414.8708323571
459	879	197	2412.0068498836
459	887	198	2407.3947947501
459	895	199	2402.6063379883
459	902	200	2396.4215075286
460	872	196	1578.4528444102
460	879	197	1579.5044838274
460	887	198	1581.3175874045
460	895	199	1586.1676344201
460	902	200	1592.4320156202
461	879	197	3.9035555463673
461	887	198	5.8214058272394
461	895	199	7.7054297537466
461	902	200	9.6555590937442
462	887	198	1.9178502808721
462	895	199	1.8840239265072
462	902	200	1.9501293399977
463	887	198	4.0997140834571
463	895	199	5.0226217989374
463	902	200	6.1968733187211
466	895	199	2414.8713181916
466	902	200	2411.9594073247
467	895	199	1578.4526660144
467	902	200	1579.5219044872
468	902	200	3.9654431967067

